version 3
run Four-0-20230614-18:51:31-539128
attr configname Four
attr datetime 20230614-18:51:31
attr datetimef 20230614-185131
attr experiment Four
attr inifile omnetpp.ini
attr iterationvars ""
attr iterationvarsd ""
attr iterationvarsf ""
attr measurement ""
attr network testnet
attr processid 539128
attr repetition 0
attr replication #0
attr resultdir results
attr runnumber 0
attr seedset 0
config *.sw[0].smartL.is_smart true
config *.sw[2..4].smartL.is_smart true
config *.sw[0].smartL.num_of_messages_to_expect 3
config *.sw[2].smartL.num_of_messages_to_expect 4
config *.sw[3..4].smartL.num_of_messages_to_expect 2
config network testnet
config scheduler-class inet::RealTimeScheduler
config cmdenv-express-mode true
config cmdenv-redirect-output true
config cmdenv-output-file simu-out.log
config ned-path .:../src;../../inet4.5/src;../../inet4.5/examples;../../inet4.5/showcases;../../inet4.5/tests/validation;../../inet4.5/tests/networks;../../inet4.5/tutorials
config **.crcMode "\"computed\""
config **.fcsMode "\"computed\""
config **.hasOspf true
config **.promiscuous true
config *.host*.forwarding true
config **.duplexMode true
config **.eth*.bitrate 100Mbps
config **.host[*].eth[0].typename ExtUpperEthernetInterface
config **.host[*].eth[0].device "\"tap\" + string(parentIndex())"
config **.host[*].eth[0].copyConfiguration "\"copyFromExt\""
config **.height 3

par testnet.sw[0].ethg$o[0].channel typename "\"test2.simulations.hslink\""
par testnet.sw[0].ethg$o[0].channel disabled false
attr mutable ""
par testnet.sw[0].ethg$o[0].channel delay 1s
attr mutable ""
attr unit s
par testnet.sw[0].ethg$o[0].channel datarate 1e+08bps
attr mutable ""
attr unit bps
par testnet.sw[0].ethg$o[0].channel ber 0
attr mutable ""
par testnet.sw[0].ethg$o[0].channel per 0
attr mutable ""
par testnet.host[0].ethg$o[0].channel typename "\"test2.simulations.hslink\""
par testnet.host[0].ethg$o[0].channel disabled false
attr mutable ""
par testnet.host[0].ethg$o[0].channel delay 1s
attr mutable ""
attr unit s
par testnet.host[0].ethg$o[0].channel datarate 1e+08bps
attr mutable ""
attr unit bps
par testnet.host[0].ethg$o[0].channel ber 0
attr mutable ""
par testnet.host[0].ethg$o[0].channel per 0
attr mutable ""
par testnet.sw[0].ethg$o[1].channel typename "\"test2.simulations.sslink\""
par testnet.sw[0].ethg$o[1].channel disabled false
attr mutable ""
par testnet.sw[0].ethg$o[1].channel delay 1s
attr mutable ""
attr unit s
par testnet.sw[0].ethg$o[1].channel datarate 330000bps
attr mutable ""
attr unit bps
par testnet.sw[0].ethg$o[1].channel ber 0
attr mutable ""
par testnet.sw[0].ethg$o[1].channel per 0
attr mutable ""
par testnet.sw[1].ethg$o[0].channel typename "\"test2.simulations.sslink\""
par testnet.sw[1].ethg$o[0].channel disabled false
attr mutable ""
par testnet.sw[1].ethg$o[0].channel delay 1s
attr mutable ""
attr unit s
par testnet.sw[1].ethg$o[0].channel datarate 330000bps
attr mutable ""
attr unit bps
par testnet.sw[1].ethg$o[0].channel ber 0
attr mutable ""
par testnet.sw[1].ethg$o[0].channel per 0
attr mutable ""
par testnet.sw[0].ethg$o[2].channel typename "\"test2.simulations.sslink\""
par testnet.sw[0].ethg$o[2].channel disabled false
attr mutable ""
par testnet.sw[0].ethg$o[2].channel delay 1s
attr mutable ""
attr unit s
par testnet.sw[0].ethg$o[2].channel datarate 330000bps
attr mutable ""
attr unit bps
par testnet.sw[0].ethg$o[2].channel ber 0
attr mutable ""
par testnet.sw[0].ethg$o[2].channel per 0
attr mutable ""
par testnet.sw[2].ethg$o[0].channel typename "\"test2.simulations.sslink\""
par testnet.sw[2].ethg$o[0].channel disabled false
attr mutable ""
par testnet.sw[2].ethg$o[0].channel delay 1s
attr mutable ""
attr unit s
par testnet.sw[2].ethg$o[0].channel datarate 330000bps
attr mutable ""
attr unit bps
par testnet.sw[2].ethg$o[0].channel ber 0
attr mutable ""
par testnet.sw[2].ethg$o[0].channel per 0
attr mutable ""
par testnet.sw[1].ethg$o[1].channel typename "\"test2.simulations.sslink\""
par testnet.sw[1].ethg$o[1].channel disabled false
attr mutable ""
par testnet.sw[1].ethg$o[1].channel delay 1s
attr mutable ""
attr unit s
par testnet.sw[1].ethg$o[1].channel datarate 330000bps
attr mutable ""
attr unit bps
par testnet.sw[1].ethg$o[1].channel ber 0
attr mutable ""
par testnet.sw[1].ethg$o[1].channel per 0
attr mutable ""
par testnet.sw[3].ethg$o[0].channel typename "\"test2.simulations.sslink\""
par testnet.sw[3].ethg$o[0].channel disabled false
attr mutable ""
par testnet.sw[3].ethg$o[0].channel delay 1s
attr mutable ""
attr unit s
par testnet.sw[3].ethg$o[0].channel datarate 330000bps
attr mutable ""
attr unit bps
par testnet.sw[3].ethg$o[0].channel ber 0
attr mutable ""
par testnet.sw[3].ethg$o[0].channel per 0
attr mutable ""
par testnet.sw[1].ethg$o[2].channel typename "\"test2.simulations.sslink\""
par testnet.sw[1].ethg$o[2].channel disabled false
attr mutable ""
par testnet.sw[1].ethg$o[2].channel delay 1s
attr mutable ""
attr unit s
par testnet.sw[1].ethg$o[2].channel datarate 330000bps
attr mutable ""
attr unit bps
par testnet.sw[1].ethg$o[2].channel ber 0
attr mutable ""
par testnet.sw[1].ethg$o[2].channel per 0
attr mutable ""
par testnet.sw[4].ethg$o[0].channel typename "\"test2.simulations.sslink\""
par testnet.sw[4].ethg$o[0].channel disabled false
attr mutable ""
par testnet.sw[4].ethg$o[0].channel delay 1s
attr mutable ""
attr unit s
par testnet.sw[4].ethg$o[0].channel datarate 330000bps
attr mutable ""
attr unit bps
par testnet.sw[4].ethg$o[0].channel ber 0
attr mutable ""
par testnet.sw[4].ethg$o[0].channel per 0
attr mutable ""
par testnet.sw[2].ethg$o[1].channel typename "\"test2.simulations.sslink\""
par testnet.sw[2].ethg$o[1].channel disabled false
attr mutable ""
par testnet.sw[2].ethg$o[1].channel delay 1s
attr mutable ""
attr unit s
par testnet.sw[2].ethg$o[1].channel datarate 330000bps
attr mutable ""
attr unit bps
par testnet.sw[2].ethg$o[1].channel ber 0
attr mutable ""
par testnet.sw[2].ethg$o[1].channel per 0
attr mutable ""
par testnet.sw[5].ethg$o[0].channel typename "\"test2.simulations.sslink\""
par testnet.sw[5].ethg$o[0].channel disabled false
attr mutable ""
par testnet.sw[5].ethg$o[0].channel delay 1s
attr mutable ""
attr unit s
par testnet.sw[5].ethg$o[0].channel datarate 330000bps
attr mutable ""
attr unit bps
par testnet.sw[5].ethg$o[0].channel ber 0
attr mutable ""
par testnet.sw[5].ethg$o[0].channel per 0
attr mutable ""
par testnet.sw[2].ethg$o[2].channel typename "\"test2.simulations.sslink\""
par testnet.sw[2].ethg$o[2].channel disabled false
attr mutable ""
par testnet.sw[2].ethg$o[2].channel delay 1s
attr mutable ""
attr unit s
par testnet.sw[2].ethg$o[2].channel datarate 330000bps
attr mutable ""
attr unit bps
par testnet.sw[2].ethg$o[2].channel ber 0
attr mutable ""
par testnet.sw[2].ethg$o[2].channel per 0
attr mutable ""
par testnet.sw[6].ethg$o[0].channel typename "\"test2.simulations.sslink\""
par testnet.sw[6].ethg$o[0].channel disabled false
attr mutable ""
par testnet.sw[6].ethg$o[0].channel delay 1s
attr mutable ""
attr unit s
par testnet.sw[6].ethg$o[0].channel datarate 330000bps
attr mutable ""
attr unit bps
par testnet.sw[6].ethg$o[0].channel ber 0
attr mutable ""
par testnet.sw[6].ethg$o[0].channel per 0
attr mutable ""
par testnet.sw[3].ethg$o[1].channel typename "\"test2.simulations.sslink\""
par testnet.sw[3].ethg$o[1].channel disabled false
attr mutable ""
par testnet.sw[3].ethg$o[1].channel delay 1s
attr mutable ""
attr unit s
par testnet.sw[3].ethg$o[1].channel datarate 330000bps
attr mutable ""
attr unit bps
par testnet.sw[3].ethg$o[1].channel ber 0
attr mutable ""
par testnet.sw[3].ethg$o[1].channel per 0
attr mutable ""
par testnet.sw[7].ethg$o[0].channel typename "\"test2.simulations.sslink\""
par testnet.sw[7].ethg$o[0].channel disabled false
attr mutable ""
par testnet.sw[7].ethg$o[0].channel delay 1s
attr mutable ""
attr unit s
par testnet.sw[7].ethg$o[0].channel datarate 330000bps
attr mutable ""
attr unit bps
par testnet.sw[7].ethg$o[0].channel ber 0
attr mutable ""
par testnet.sw[7].ethg$o[0].channel per 0
attr mutable ""
par testnet.sw[3].ethg$o[2].channel typename "\"test2.simulations.sslink\""
par testnet.sw[3].ethg$o[2].channel disabled false
attr mutable ""
par testnet.sw[3].ethg$o[2].channel delay 1s
attr mutable ""
attr unit s
par testnet.sw[3].ethg$o[2].channel datarate 330000bps
attr mutable ""
attr unit bps
par testnet.sw[3].ethg$o[2].channel ber 0
attr mutable ""
par testnet.sw[3].ethg$o[2].channel per 0
attr mutable ""
par testnet.sw[8].ethg$o[0].channel typename "\"test2.simulations.sslink\""
par testnet.sw[8].ethg$o[0].channel disabled false
attr mutable ""
par testnet.sw[8].ethg$o[0].channel delay 1s
attr mutable ""
attr unit s
par testnet.sw[8].ethg$o[0].channel datarate 330000bps
attr mutable ""
attr unit bps
par testnet.sw[8].ethg$o[0].channel ber 0
attr mutable ""
par testnet.sw[8].ethg$o[0].channel per 0
attr mutable ""
par testnet.sw[4].ethg$o[1].channel typename "\"test2.simulations.sslink\""
par testnet.sw[4].ethg$o[1].channel disabled false
attr mutable ""
par testnet.sw[4].ethg$o[1].channel delay 1s
attr mutable ""
attr unit s
par testnet.sw[4].ethg$o[1].channel datarate 330000bps
attr mutable ""
attr unit bps
par testnet.sw[4].ethg$o[1].channel ber 0
attr mutable ""
par testnet.sw[4].ethg$o[1].channel per 0
attr mutable ""
par testnet.sw[9].ethg$o[0].channel typename "\"test2.simulations.sslink\""
par testnet.sw[9].ethg$o[0].channel disabled false
attr mutable ""
par testnet.sw[9].ethg$o[0].channel delay 1s
attr mutable ""
attr unit s
par testnet.sw[9].ethg$o[0].channel datarate 330000bps
attr mutable ""
attr unit bps
par testnet.sw[9].ethg$o[0].channel ber 0
attr mutable ""
par testnet.sw[9].ethg$o[0].channel per 0
attr mutable ""
par testnet.sw[4].ethg$o[2].channel typename "\"test2.simulations.sslink\""
par testnet.sw[4].ethg$o[2].channel disabled false
attr mutable ""
par testnet.sw[4].ethg$o[2].channel delay 1s
attr mutable ""
attr unit s
par testnet.sw[4].ethg$o[2].channel datarate 330000bps
attr mutable ""
attr unit bps
par testnet.sw[4].ethg$o[2].channel ber 0
attr mutable ""
par testnet.sw[4].ethg$o[2].channel per 0
attr mutable ""
par testnet.sw[10].ethg$o[0].channel typename "\"test2.simulations.sslink\""
par testnet.sw[10].ethg$o[0].channel disabled false
attr mutable ""
par testnet.sw[10].ethg$o[0].channel delay 1s
attr mutable ""
attr unit s
par testnet.sw[10].ethg$o[0].channel datarate 330000bps
attr mutable ""
attr unit bps
par testnet.sw[10].ethg$o[0].channel ber 0
attr mutable ""
par testnet.sw[10].ethg$o[0].channel per 0
attr mutable ""
par testnet.sw[5].ethg$o[1].channel typename "\"test2.simulations.sslink\""
par testnet.sw[5].ethg$o[1].channel disabled false
attr mutable ""
par testnet.sw[5].ethg$o[1].channel delay 1s
attr mutable ""
attr unit s
par testnet.sw[5].ethg$o[1].channel datarate 330000bps
attr mutable ""
attr unit bps
par testnet.sw[5].ethg$o[1].channel ber 0
attr mutable ""
par testnet.sw[5].ethg$o[1].channel per 0
attr mutable ""
par testnet.sw[11].ethg$o[0].channel typename "\"test2.simulations.sslink\""
par testnet.sw[11].ethg$o[0].channel disabled false
attr mutable ""
par testnet.sw[11].ethg$o[0].channel delay 1s
attr mutable ""
attr unit s
par testnet.sw[11].ethg$o[0].channel datarate 330000bps
attr mutable ""
attr unit bps
par testnet.sw[11].ethg$o[0].channel ber 0
attr mutable ""
par testnet.sw[11].ethg$o[0].channel per 0
attr mutable ""
par testnet.sw[5].ethg$o[2].channel typename "\"test2.simulations.sslink\""
par testnet.sw[5].ethg$o[2].channel disabled false
attr mutable ""
par testnet.sw[5].ethg$o[2].channel delay 1s
attr mutable ""
attr unit s
par testnet.sw[5].ethg$o[2].channel datarate 330000bps
attr mutable ""
attr unit bps
par testnet.sw[5].ethg$o[2].channel ber 0
attr mutable ""
par testnet.sw[5].ethg$o[2].channel per 0
attr mutable ""
par testnet.sw[12].ethg$o[0].channel typename "\"test2.simulations.sslink\""
par testnet.sw[12].ethg$o[0].channel disabled false
attr mutable ""
par testnet.sw[12].ethg$o[0].channel delay 1s
attr mutable ""
attr unit s
par testnet.sw[12].ethg$o[0].channel datarate 330000bps
attr mutable ""
attr unit bps
par testnet.sw[12].ethg$o[0].channel ber 0
attr mutable ""
par testnet.sw[12].ethg$o[0].channel per 0
attr mutable ""
par testnet.sw[6].ethg$o[1].channel typename "\"test2.simulations.sslink\""
par testnet.sw[6].ethg$o[1].channel disabled false
attr mutable ""
par testnet.sw[6].ethg$o[1].channel delay 1s
attr mutable ""
attr unit s
par testnet.sw[6].ethg$o[1].channel datarate 330000bps
attr mutable ""
attr unit bps
par testnet.sw[6].ethg$o[1].channel ber 0
attr mutable ""
par testnet.sw[6].ethg$o[1].channel per 0
attr mutable ""
par testnet.sw[13].ethg$o[0].channel typename "\"test2.simulations.sslink\""
par testnet.sw[13].ethg$o[0].channel disabled false
attr mutable ""
par testnet.sw[13].ethg$o[0].channel delay 1s
attr mutable ""
attr unit s
par testnet.sw[13].ethg$o[0].channel datarate 330000bps
attr mutable ""
attr unit bps
par testnet.sw[13].ethg$o[0].channel ber 0
attr mutable ""
par testnet.sw[13].ethg$o[0].channel per 0
attr mutable ""
par testnet.sw[6].ethg$o[2].channel typename "\"test2.simulations.sslink\""
par testnet.sw[6].ethg$o[2].channel disabled false
attr mutable ""
par testnet.sw[6].ethg$o[2].channel delay 1s
attr mutable ""
attr unit s
par testnet.sw[6].ethg$o[2].channel datarate 330000bps
attr mutable ""
attr unit bps
par testnet.sw[6].ethg$o[2].channel ber 0
attr mutable ""
par testnet.sw[6].ethg$o[2].channel per 0
attr mutable ""
par testnet.sw[14].ethg$o[0].channel typename "\"test2.simulations.sslink\""
par testnet.sw[14].ethg$o[0].channel disabled false
attr mutable ""
par testnet.sw[14].ethg$o[0].channel delay 1s
attr mutable ""
attr unit s
par testnet.sw[14].ethg$o[0].channel datarate 330000bps
attr mutable ""
attr unit bps
par testnet.sw[14].ethg$o[0].channel ber 0
attr mutable ""
par testnet.sw[14].ethg$o[0].channel per 0
attr mutable ""
par testnet.sw[7].ethg$o[1].channel typename "\"test2.simulations.hslink\""
par testnet.sw[7].ethg$o[1].channel disabled false
attr mutable ""
par testnet.sw[7].ethg$o[1].channel delay 1s
attr mutable ""
attr unit s
par testnet.sw[7].ethg$o[1].channel datarate 1e+08bps
attr mutable ""
attr unit bps
par testnet.sw[7].ethg$o[1].channel ber 0
attr mutable ""
par testnet.sw[7].ethg$o[1].channel per 0
attr mutable ""
par testnet.host[1].ethg$o[0].channel typename "\"test2.simulations.hslink\""
par testnet.host[1].ethg$o[0].channel disabled false
attr mutable ""
par testnet.host[1].ethg$o[0].channel delay 1s
attr mutable ""
attr unit s
par testnet.host[1].ethg$o[0].channel datarate 1e+08bps
attr mutable ""
attr unit bps
par testnet.host[1].ethg$o[0].channel ber 0
attr mutable ""
par testnet.host[1].ethg$o[0].channel per 0
attr mutable ""
par testnet.sw[8].ethg$o[1].channel typename "\"test2.simulations.hslink\""
par testnet.sw[8].ethg$o[1].channel disabled false
attr mutable ""
par testnet.sw[8].ethg$o[1].channel delay 1s
attr mutable ""
attr unit s
par testnet.sw[8].ethg$o[1].channel datarate 1e+08bps
attr mutable ""
attr unit bps
par testnet.sw[8].ethg$o[1].channel ber 0
attr mutable ""
par testnet.sw[8].ethg$o[1].channel per 0
attr mutable ""
par testnet.host[2].ethg$o[0].channel typename "\"test2.simulations.hslink\""
par testnet.host[2].ethg$o[0].channel disabled false
attr mutable ""
par testnet.host[2].ethg$o[0].channel delay 1s
attr mutable ""
attr unit s
par testnet.host[2].ethg$o[0].channel datarate 1e+08bps
attr mutable ""
attr unit bps
par testnet.host[2].ethg$o[0].channel ber 0
attr mutable ""
par testnet.host[2].ethg$o[0].channel per 0
attr mutable ""
par testnet.sw[9].ethg$o[1].channel typename "\"test2.simulations.hslink\""
par testnet.sw[9].ethg$o[1].channel disabled false
attr mutable ""
par testnet.sw[9].ethg$o[1].channel delay 1s
attr mutable ""
attr unit s
par testnet.sw[9].ethg$o[1].channel datarate 1e+08bps
attr mutable ""
attr unit bps
par testnet.sw[9].ethg$o[1].channel ber 0
attr mutable ""
par testnet.sw[9].ethg$o[1].channel per 0
attr mutable ""
par testnet.host[3].ethg$o[0].channel typename "\"test2.simulations.hslink\""
par testnet.host[3].ethg$o[0].channel disabled false
attr mutable ""
par testnet.host[3].ethg$o[0].channel delay 1s
attr mutable ""
attr unit s
par testnet.host[3].ethg$o[0].channel datarate 1e+08bps
attr mutable ""
attr unit bps
par testnet.host[3].ethg$o[0].channel ber 0
attr mutable ""
par testnet.host[3].ethg$o[0].channel per 0
attr mutable ""
par testnet.sw[10].ethg$o[1].channel typename "\"test2.simulations.hslink\""
par testnet.sw[10].ethg$o[1].channel disabled false
attr mutable ""
par testnet.sw[10].ethg$o[1].channel delay 1s
attr mutable ""
attr unit s
par testnet.sw[10].ethg$o[1].channel datarate 1e+08bps
attr mutable ""
attr unit bps
par testnet.sw[10].ethg$o[1].channel ber 0
attr mutable ""
par testnet.sw[10].ethg$o[1].channel per 0
attr mutable ""
par testnet.host[4].ethg$o[0].channel typename "\"test2.simulations.hslink\""
par testnet.host[4].ethg$o[0].channel disabled false
attr mutable ""
par testnet.host[4].ethg$o[0].channel delay 1s
attr mutable ""
attr unit s
par testnet.host[4].ethg$o[0].channel datarate 1e+08bps
attr mutable ""
attr unit bps
par testnet.host[4].ethg$o[0].channel ber 0
attr mutable ""
par testnet.host[4].ethg$o[0].channel per 0
attr mutable ""
par testnet.sw[11].ethg$o[1].channel typename "\"test2.simulations.hslink\""
par testnet.sw[11].ethg$o[1].channel disabled false
attr mutable ""
par testnet.sw[11].ethg$o[1].channel delay 1s
attr mutable ""
attr unit s
par testnet.sw[11].ethg$o[1].channel datarate 1e+08bps
attr mutable ""
attr unit bps
par testnet.sw[11].ethg$o[1].channel ber 0
attr mutable ""
par testnet.sw[11].ethg$o[1].channel per 0
attr mutable ""
par testnet.host[5].ethg$o[0].channel typename "\"test2.simulations.hslink\""
par testnet.host[5].ethg$o[0].channel disabled false
attr mutable ""
par testnet.host[5].ethg$o[0].channel delay 1s
attr mutable ""
attr unit s
par testnet.host[5].ethg$o[0].channel datarate 1e+08bps
attr mutable ""
attr unit bps
par testnet.host[5].ethg$o[0].channel ber 0
attr mutable ""
par testnet.host[5].ethg$o[0].channel per 0
attr mutable ""
par testnet.sw[12].ethg$o[1].channel typename "\"test2.simulations.hslink\""
par testnet.sw[12].ethg$o[1].channel disabled false
attr mutable ""
par testnet.sw[12].ethg$o[1].channel delay 1s
attr mutable ""
attr unit s
par testnet.sw[12].ethg$o[1].channel datarate 1e+08bps
attr mutable ""
attr unit bps
par testnet.sw[12].ethg$o[1].channel ber 0
attr mutable ""
par testnet.sw[12].ethg$o[1].channel per 0
attr mutable ""
par testnet.host[6].ethg$o[0].channel typename "\"test2.simulations.hslink\""
par testnet.host[6].ethg$o[0].channel disabled false
attr mutable ""
par testnet.host[6].ethg$o[0].channel delay 1s
attr mutable ""
attr unit s
par testnet.host[6].ethg$o[0].channel datarate 1e+08bps
attr mutable ""
attr unit bps
par testnet.host[6].ethg$o[0].channel ber 0
attr mutable ""
par testnet.host[6].ethg$o[0].channel per 0
attr mutable ""
par testnet.sw[13].ethg$o[1].channel typename "\"test2.simulations.hslink\""
par testnet.sw[13].ethg$o[1].channel disabled false
attr mutable ""
par testnet.sw[13].ethg$o[1].channel delay 1s
attr mutable ""
attr unit s
par testnet.sw[13].ethg$o[1].channel datarate 1e+08bps
attr mutable ""
attr unit bps
par testnet.sw[13].ethg$o[1].channel ber 0
attr mutable ""
par testnet.sw[13].ethg$o[1].channel per 0
attr mutable ""
par testnet.host[7].ethg$o[0].channel typename "\"test2.simulations.hslink\""
par testnet.host[7].ethg$o[0].channel disabled false
attr mutable ""
par testnet.host[7].ethg$o[0].channel delay 1s
attr mutable ""
attr unit s
par testnet.host[7].ethg$o[0].channel datarate 1e+08bps
attr mutable ""
attr unit bps
par testnet.host[7].ethg$o[0].channel ber 0
attr mutable ""
par testnet.host[7].ethg$o[0].channel per 0
attr mutable ""
par testnet.sw[14].ethg$o[1].channel typename "\"test2.simulations.hslink\""
par testnet.sw[14].ethg$o[1].channel disabled false
attr mutable ""
par testnet.sw[14].ethg$o[1].channel delay 1s
attr mutable ""
attr unit s
par testnet.sw[14].ethg$o[1].channel datarate 1e+08bps
attr mutable ""
attr unit bps
par testnet.sw[14].ethg$o[1].channel ber 0
attr mutable ""
par testnet.sw[14].ethg$o[1].channel per 0
attr mutable ""
par testnet.host[8].ethg$o[0].channel typename "\"test2.simulations.hslink\""
par testnet.host[8].ethg$o[0].channel disabled false
attr mutable ""
par testnet.host[8].ethg$o[0].channel delay 1s
attr mutable ""
attr unit s
par testnet.host[8].ethg$o[0].channel datarate 1e+08bps
attr mutable ""
attr unit bps
par testnet.host[8].ethg$o[0].channel ber 0
attr mutable ""
par testnet.host[8].ethg$o[0].channel per 0
attr mutable ""
par testnet.configurator typename "\"inet.networklayer.configurator.ipv4.Ipv4NetworkConfigurator\""
par testnet.configurator minLinkWeight 0.001
par testnet.configurator configureIsolatedNetworksSeparatly false
par testnet.configurator config "<config>...</config> at content:1"
par testnet.configurator assignAddresses true
par testnet.configurator assignUniqueAddresses true
par testnet.configurator assignDisjunctSubnetAddresses true
par testnet.configurator addStaticRoutes true
par testnet.configurator addDefaultRoutes true
par testnet.configurator addSubnetRoutes true
par testnet.configurator addDirectRoutes true
par testnet.configurator optimizeRoutes true
par testnet.configurator dumpTopology false
par testnet.configurator dumpLinks false
par testnet.configurator dumpAddresses false
par testnet.configurator dumpRoutes false
par testnet.configurator dumpConfig "\"\""
par testnet.sw[0].smartL.gate$o[0].channel typename "\"ned.IdealChannel\""
par testnet.sw[0].ethg$i[0].channel typename "\"ned.IdealChannel\""
par testnet.sw[0].smartL.gate$o[1].channel typename "\"ned.IdealChannel\""
par testnet.sw[0].ethg$i[1].channel typename "\"ned.IdealChannel\""
par testnet.sw[0].smartL.gate$o[2].channel typename "\"ned.IdealChannel\""
par testnet.sw[0].ethg$i[2].channel typename "\"ned.IdealChannel\""
par testnet.sw[0].smartL typename "\"inet.smart.SmartLayer\""
par testnet.sw[0].smartL debug false
par testnet.sw[0].smartL is_smart true
par testnet.sw[0].smartL num_of_messages_to_expect 3
par testnet.sw[0].smartL height 3
par testnet.sw[0] typename "\"inet.smart.SmartSwitch\""
par testnet.sw[0] numEthInterfaces 0
par testnet.sw[1].smartL.gate$o[0].channel typename "\"ned.IdealChannel\""
par testnet.sw[1].ethg$i[0].channel typename "\"ned.IdealChannel\""
par testnet.sw[1].smartL.gate$o[1].channel typename "\"ned.IdealChannel\""
par testnet.sw[1].ethg$i[1].channel typename "\"ned.IdealChannel\""
par testnet.sw[1].smartL.gate$o[2].channel typename "\"ned.IdealChannel\""
par testnet.sw[1].ethg$i[2].channel typename "\"ned.IdealChannel\""
par testnet.sw[1].smartL typename "\"inet.smart.SmartLayer\""
par testnet.sw[1].smartL debug false
par testnet.sw[1].smartL is_smart false
par testnet.sw[1].smartL num_of_messages_to_expect 2
par testnet.sw[1].smartL height 3
par testnet.sw[1] typename "\"inet.smart.SmartSwitch\""
par testnet.sw[1] numEthInterfaces 0
par testnet.sw[2].smartL.gate$o[0].channel typename "\"ned.IdealChannel\""
par testnet.sw[2].ethg$i[0].channel typename "\"ned.IdealChannel\""
par testnet.sw[2].smartL.gate$o[1].channel typename "\"ned.IdealChannel\""
par testnet.sw[2].ethg$i[1].channel typename "\"ned.IdealChannel\""
par testnet.sw[2].smartL.gate$o[2].channel typename "\"ned.IdealChannel\""
par testnet.sw[2].ethg$i[2].channel typename "\"ned.IdealChannel\""
par testnet.sw[2].smartL typename "\"inet.smart.SmartLayer\""
par testnet.sw[2].smartL debug false
par testnet.sw[2].smartL is_smart true
par testnet.sw[2].smartL num_of_messages_to_expect 4
par testnet.sw[2].smartL height 3
par testnet.sw[2] typename "\"inet.smart.SmartSwitch\""
par testnet.sw[2] numEthInterfaces 0
par testnet.sw[3].smartL.gate$o[0].channel typename "\"ned.IdealChannel\""
par testnet.sw[3].ethg$i[0].channel typename "\"ned.IdealChannel\""
par testnet.sw[3].smartL.gate$o[1].channel typename "\"ned.IdealChannel\""
par testnet.sw[3].ethg$i[1].channel typename "\"ned.IdealChannel\""
par testnet.sw[3].smartL.gate$o[2].channel typename "\"ned.IdealChannel\""
par testnet.sw[3].ethg$i[2].channel typename "\"ned.IdealChannel\""
par testnet.sw[3].smartL typename "\"inet.smart.SmartLayer\""
par testnet.sw[3].smartL debug false
par testnet.sw[3].smartL is_smart true
par testnet.sw[3].smartL num_of_messages_to_expect 2
par testnet.sw[3].smartL height 3
par testnet.sw[3] typename "\"inet.smart.SmartSwitch\""
par testnet.sw[3] numEthInterfaces 0
par testnet.sw[4].smartL.gate$o[0].channel typename "\"ned.IdealChannel\""
par testnet.sw[4].ethg$i[0].channel typename "\"ned.IdealChannel\""
par testnet.sw[4].smartL.gate$o[1].channel typename "\"ned.IdealChannel\""
par testnet.sw[4].ethg$i[1].channel typename "\"ned.IdealChannel\""
par testnet.sw[4].smartL.gate$o[2].channel typename "\"ned.IdealChannel\""
par testnet.sw[4].ethg$i[2].channel typename "\"ned.IdealChannel\""
par testnet.sw[4].smartL typename "\"inet.smart.SmartLayer\""
par testnet.sw[4].smartL debug false
par testnet.sw[4].smartL is_smart true
par testnet.sw[4].smartL num_of_messages_to_expect 2
par testnet.sw[4].smartL height 3
par testnet.sw[4] typename "\"inet.smart.SmartSwitch\""
par testnet.sw[4] numEthInterfaces 0
par testnet.sw[5].smartL.gate$o[0].channel typename "\"ned.IdealChannel\""
par testnet.sw[5].ethg$i[0].channel typename "\"ned.IdealChannel\""
par testnet.sw[5].smartL.gate$o[1].channel typename "\"ned.IdealChannel\""
par testnet.sw[5].ethg$i[1].channel typename "\"ned.IdealChannel\""
par testnet.sw[5].smartL.gate$o[2].channel typename "\"ned.IdealChannel\""
par testnet.sw[5].ethg$i[2].channel typename "\"ned.IdealChannel\""
par testnet.sw[5].smartL typename "\"inet.smart.SmartLayer\""
par testnet.sw[5].smartL debug false
par testnet.sw[5].smartL is_smart false
par testnet.sw[5].smartL num_of_messages_to_expect 2
par testnet.sw[5].smartL height 3
par testnet.sw[5] typename "\"inet.smart.SmartSwitch\""
par testnet.sw[5] numEthInterfaces 0
par testnet.sw[6].smartL.gate$o[0].channel typename "\"ned.IdealChannel\""
par testnet.sw[6].ethg$i[0].channel typename "\"ned.IdealChannel\""
par testnet.sw[6].smartL.gate$o[1].channel typename "\"ned.IdealChannel\""
par testnet.sw[6].ethg$i[1].channel typename "\"ned.IdealChannel\""
par testnet.sw[6].smartL.gate$o[2].channel typename "\"ned.IdealChannel\""
par testnet.sw[6].ethg$i[2].channel typename "\"ned.IdealChannel\""
par testnet.sw[6].smartL typename "\"inet.smart.SmartLayer\""
par testnet.sw[6].smartL debug false
par testnet.sw[6].smartL is_smart false
par testnet.sw[6].smartL num_of_messages_to_expect 2
par testnet.sw[6].smartL height 3
par testnet.sw[6] typename "\"inet.smart.SmartSwitch\""
par testnet.sw[6] numEthInterfaces 0
par testnet.sw[7].smartL.gate$o[0].channel typename "\"ned.IdealChannel\""
par testnet.sw[7].ethg$i[0].channel typename "\"ned.IdealChannel\""
par testnet.sw[7].smartL.gate$o[1].channel typename "\"ned.IdealChannel\""
par testnet.sw[7].ethg$i[1].channel typename "\"ned.IdealChannel\""
par testnet.sw[7].smartL typename "\"inet.smart.SmartLayer\""
par testnet.sw[7].smartL debug false
par testnet.sw[7].smartL is_smart false
par testnet.sw[7].smartL num_of_messages_to_expect 2
par testnet.sw[7].smartL height 3
par testnet.sw[7] typename "\"inet.smart.SmartSwitch\""
par testnet.sw[7] numEthInterfaces 0
par testnet.sw[8].smartL.gate$o[0].channel typename "\"ned.IdealChannel\""
par testnet.sw[8].ethg$i[0].channel typename "\"ned.IdealChannel\""
par testnet.sw[8].smartL.gate$o[1].channel typename "\"ned.IdealChannel\""
par testnet.sw[8].ethg$i[1].channel typename "\"ned.IdealChannel\""
par testnet.sw[8].smartL typename "\"inet.smart.SmartLayer\""
par testnet.sw[8].smartL debug false
par testnet.sw[8].smartL is_smart false
par testnet.sw[8].smartL num_of_messages_to_expect 2
par testnet.sw[8].smartL height 3
par testnet.sw[8] typename "\"inet.smart.SmartSwitch\""
par testnet.sw[8] numEthInterfaces 0
par testnet.sw[9].smartL.gate$o[0].channel typename "\"ned.IdealChannel\""
par testnet.sw[9].ethg$i[0].channel typename "\"ned.IdealChannel\""
par testnet.sw[9].smartL.gate$o[1].channel typename "\"ned.IdealChannel\""
par testnet.sw[9].ethg$i[1].channel typename "\"ned.IdealChannel\""
par testnet.sw[9].smartL typename "\"inet.smart.SmartLayer\""
par testnet.sw[9].smartL debug false
par testnet.sw[9].smartL is_smart false
par testnet.sw[9].smartL num_of_messages_to_expect 2
par testnet.sw[9].smartL height 3
par testnet.sw[9] typename "\"inet.smart.SmartSwitch\""
par testnet.sw[9] numEthInterfaces 0
par testnet.sw[10].smartL.gate$o[0].channel typename "\"ned.IdealChannel\""
par testnet.sw[10].ethg$i[0].channel typename "\"ned.IdealChannel\""
par testnet.sw[10].smartL.gate$o[1].channel typename "\"ned.IdealChannel\""
par testnet.sw[10].ethg$i[1].channel typename "\"ned.IdealChannel\""
par testnet.sw[10].smartL typename "\"inet.smart.SmartLayer\""
par testnet.sw[10].smartL debug false
par testnet.sw[10].smartL is_smart false
par testnet.sw[10].smartL num_of_messages_to_expect 2
par testnet.sw[10].smartL height 3
par testnet.sw[10] typename "\"inet.smart.SmartSwitch\""
par testnet.sw[10] numEthInterfaces 0
par testnet.sw[11].smartL.gate$o[0].channel typename "\"ned.IdealChannel\""
par testnet.sw[11].ethg$i[0].channel typename "\"ned.IdealChannel\""
par testnet.sw[11].smartL.gate$o[1].channel typename "\"ned.IdealChannel\""
par testnet.sw[11].ethg$i[1].channel typename "\"ned.IdealChannel\""
par testnet.sw[11].smartL typename "\"inet.smart.SmartLayer\""
par testnet.sw[11].smartL debug false
par testnet.sw[11].smartL is_smart false
par testnet.sw[11].smartL num_of_messages_to_expect 2
par testnet.sw[11].smartL height 3
par testnet.sw[11] typename "\"inet.smart.SmartSwitch\""
par testnet.sw[11] numEthInterfaces 0
par testnet.sw[12].smartL.gate$o[0].channel typename "\"ned.IdealChannel\""
par testnet.sw[12].ethg$i[0].channel typename "\"ned.IdealChannel\""
par testnet.sw[12].smartL.gate$o[1].channel typename "\"ned.IdealChannel\""
par testnet.sw[12].ethg$i[1].channel typename "\"ned.IdealChannel\""
par testnet.sw[12].smartL typename "\"inet.smart.SmartLayer\""
par testnet.sw[12].smartL debug false
par testnet.sw[12].smartL is_smart false
par testnet.sw[12].smartL num_of_messages_to_expect 2
par testnet.sw[12].smartL height 3
par testnet.sw[12] typename "\"inet.smart.SmartSwitch\""
par testnet.sw[12] numEthInterfaces 0
par testnet.sw[13].smartL.gate$o[0].channel typename "\"ned.IdealChannel\""
par testnet.sw[13].ethg$i[0].channel typename "\"ned.IdealChannel\""
par testnet.sw[13].smartL.gate$o[1].channel typename "\"ned.IdealChannel\""
par testnet.sw[13].ethg$i[1].channel typename "\"ned.IdealChannel\""
par testnet.sw[13].smartL typename "\"inet.smart.SmartLayer\""
par testnet.sw[13].smartL debug false
par testnet.sw[13].smartL is_smart false
par testnet.sw[13].smartL num_of_messages_to_expect 2
par testnet.sw[13].smartL height 3
par testnet.sw[13] typename "\"inet.smart.SmartSwitch\""
par testnet.sw[13] numEthInterfaces 0
par testnet.sw[14].smartL.gate$o[0].channel typename "\"ned.IdealChannel\""
par testnet.sw[14].ethg$i[0].channel typename "\"ned.IdealChannel\""
par testnet.sw[14].smartL.gate$o[1].channel typename "\"ned.IdealChannel\""
par testnet.sw[14].ethg$i[1].channel typename "\"ned.IdealChannel\""
par testnet.sw[14].smartL typename "\"inet.smart.SmartLayer\""
par testnet.sw[14].smartL debug false
par testnet.sw[14].smartL is_smart false
par testnet.sw[14].smartL num_of_messages_to_expect 2
par testnet.sw[14].smartL height 3
par testnet.sw[14] typename "\"inet.smart.SmartSwitch\""
par testnet.sw[14] numEthInterfaces 0
par testnet.host[0].ethg$i[0].channel typename "\"ned.IdealChannel\""
par testnet.host[0].eth[0].phys$o.channel typename "\"ned.IdealChannel\""
par testnet.host[0].interfaceTable typename "\"inet.networklayer.common.InterfaceTable\""
par testnet.host[0].interfaceTable displayAddresses false
par testnet.host[0].cb typename "\"inet.common.MessageDispatcher\""
par testnet.host[0].cb displayStringTextFormat "\"processed %p pk (%l)\""
par testnet.host[0].cb forwardServiceRegistration true
par testnet.host[0].cb forwardProtocolRegistration true
par testnet.host[0].bl typename "\"inet.common.MessageDispatcher\""
par testnet.host[0].bl displayStringTextFormat "\"processed %p pk (%l)\""
par testnet.host[0].bl forwardServiceRegistration true
par testnet.host[0].bl forwardProtocolRegistration true
par testnet.host[0].ethernet typename "\"inet.linklayer.ethernet.basic.EthernetEncapsulation\""
par testnet.host[0].ethernet registerProtocol true
par testnet.host[0].ethernet interfaceTableModule "\"testnet.host[0].interfaceTable\""
par testnet.host[0].ethernet fcsMode "\"computed\""
attr enum declared,computed
par testnet.host[0].ethernet stopOperationExtraTime -1s
attr unit s
par testnet.host[0].ethernet stopOperationTimeout 2s
attr unit s
scalar testnet.host[0].ethernet pauseSent:count 0
attr recordingmode count
attr title "pause sent, count"
scalar testnet.host[0].ethernet pauseSent:sum 0
attr recordingmode sum
attr title "pause sent, sum"
scalar testnet.host[0].ethernet decapPk:count 0
attr interpolationmode none
attr recordingmode count
attr source decapPk
attr title "packets decapsulated, count"
scalar testnet.host[0].ethernet decapPk:sum(packetBytes) 0
attr interpolationmode none
attr recordingmode sum(packetBytes)
attr source decapPk
attr title "packets decapsulated, sum(packetBytes)"
scalar testnet.host[0].ethernet encapPk:count 0
attr interpolationmode none
attr recordingmode count
attr source encapPk
attr title "packets encapsulated, count"
scalar testnet.host[0].ethernet encapPk:sum(packetBytes) 0
attr interpolationmode none
attr recordingmode sum(packetBytes)
attr source encapPk
attr title "packets encapsulated, sum(packetBytes)"
par testnet.host[0].li typename "\"inet.common.MessageDispatcher\""
par testnet.host[0].li displayStringTextFormat "\"processed %p pk (%l)\""
par testnet.host[0].li forwardServiceRegistration true
par testnet.host[0].li forwardProtocolRegistration true
par testnet.host[0].lo[0].upperLayerIn.channel typename "\"ned.IdealChannel\""
par testnet.host[0].lo[0].lo.upperLayerOut.channel typename "\"ned.IdealChannel\""
par testnet.host[0].lo[0].lo typename "\"inet.linklayer.loopback.Loopback\""
par testnet.host[0].lo[0].lo interfaceTableModule "\"testnet.host[0].interfaceTable\""
par testnet.host[0].lo[0].lo mtu 4470B
attr unit B
scalar testnet.host[0].lo[0].lo rcvdPkFromHl:count 0
attr interpolationmode none
attr recordingmode count
attr source packetReceivedFromUpper
attr title "packets received from higher layer, count"
scalar testnet.host[0].lo[0].lo rcvdPkFromHl:sum(packetBytes) 0
attr interpolationmode none
attr recordingmode sum(packetBytes)
attr source packetReceivedFromUpper
attr title "packets received from higher layer, sum(packetBytes)"
scalar testnet.host[0].lo[0].lo passedUpPk:count 0
attr interpolationmode none
attr recordingmode count
attr source packetSentToUpper
attr title "packets passed to higher layer, count"
scalar testnet.host[0].lo[0].lo passedUpPk:sum(packetBytes) 0
attr interpolationmode none
attr recordingmode sum(packetBytes)
attr source packetSentToUpper
attr title "packets passed to higher layer, sum(packetBytes)"
par testnet.host[0].lo[0] typename "\"inet.linklayer.loopback.LoopbackInterface\""
par testnet.host[0].lo[0] displayStringTextFormat "\"%a (%i)\\n%m\""
par testnet.host[0].lo[0] recordPcap false
par testnet.host[0].lo[0] numPcapRecorders 0
par testnet.host[0].lo[0] interfaceTableModule "\"testnet.host[0].interfaceTable\""
scalar testnet.host[0].lo[0] packetDropInterfaceDown:count 0
attr interpolationmode none
attr recordingmode count
attr source packetDropReasonIsInterfaceDown(packetDropped)
attr title "packet drops: interface down, count"
scalar testnet.host[0].lo[0] packetDropInterfaceDown:sum(packetBytes) 0
attr interpolationmode none
attr recordingmode sum(packetBytes)
attr source packetDropReasonIsInterfaceDown(packetDropped)
attr title "packet drops: interface down, sum(packetBytes)"
scalar testnet.host[0].lo[0] packetDropNoCarrier:count 0
attr interpolationmode none
attr recordingmode count
attr source packetDropReasonIsNoCarrier(packetDropped)
attr title "packet drops: no carrier, count"
scalar testnet.host[0].lo[0] packetDropNoCarrier:sum(packetBytes) 0
attr interpolationmode none
attr recordingmode sum(packetBytes)
attr source packetDropReasonIsNoCarrier(packetDropped)
attr title "packet drops: no carrier, sum(packetBytes)"
par testnet.host[0].eth[0].mac.phys$o.channel typename "\"ned.IdealChannel\""
par testnet.host[0].eth[0].phys$i.channel typename "\"ned.IdealChannel\""
par testnet.host[0].eth[0].tap typename "\"inet.emulation.linklayer.ethernet.ExtEthernetTapDevice\""
par testnet.host[0].eth[0].tap device "\"tap0\""
par testnet.host[0].eth[0].tap namespace "\"\""
par testnet.host[0].eth[0].tap packetNameFormat "\"Ext-%p-%t-%n\""
scalar testnet.host[0].eth[0].tap packetReceived:count 56
attr interpolationmode none
attr recordingmode count
attr source packetReceived
attr title "packets received, count"
scalar testnet.host[0].eth[0].tap packetReceived:sum(packetBytes) 6322
attr interpolationmode none
attr recordingmode sum(packetBytes)
attr source packetReceived
attr title "packets received, sum(packetBytes)"
scalar testnet.host[0].eth[0].tap packetSent:count 5
attr interpolationmode none
attr recordingmode count
attr source packetSent
attr title "packets sent, count"
scalar testnet.host[0].eth[0].tap packetSent:sum(packetBytes) 300
attr interpolationmode none
attr recordingmode sum(packetBytes)
attr source packetSent
attr title "packets sent, sum(packetBytes)"
scalar testnet.host[0].eth[0].tap packetReceivedFromLower:count 5
attr interpolationmode none
attr recordingmode count
attr source packetReceivedFromLower
attr title "packets received from higher layer, count"
scalar testnet.host[0].eth[0].tap packetReceivedFromLower:sum(packetBytes) 320
attr interpolationmode none
attr recordingmode sum(packetBytes)
attr source packetReceivedFromLower
attr title "packets received from higher layer, sum(packetBytes)"
scalar testnet.host[0].eth[0].tap packetSentFromLower:count 56
attr interpolationmode none
attr recordingmode count
attr source packetSentToLower
attr title "packets sent to higher layer, count"
scalar testnet.host[0].eth[0].tap packetSentFromLower:sum(packetBytes) 6322
attr interpolationmode none
attr recordingmode sum(packetBytes)
attr source packetSentToLower
attr title "packets sent to higher layer, sum(packetBytes)"
par testnet.host[0].eth[0].queue typename "\"inet.linklayer.ethernet.common.EthernetQueue\""
par testnet.host[0].eth[0].queue displayStringTextFormat "\"contains %p pk (%l) pushed %u\\npulled %o removed %r dropped %d\""
par testnet.host[0].eth[0].queue packetCapacity 10000
par testnet.host[0].eth[0].queue dataCapacity -1b
attr unit b
par testnet.host[0].eth[0].queue dropperClass "\"inet::queueing::PacketAtCollectionEndDropper\""
par testnet.host[0].eth[0].queue comparatorClass "\"inet::EthernetFrameTypeComparator\""
par testnet.host[0].eth[0].queue bufferModule "\"\""
scalar testnet.host[0].eth[0].queue queueLength:last 0
attr autoWarmupFilter false
attr interpolationmode sample-hold
attr recordingmode last
attr source "warmup(atomic(constant0(packetPushEnded) + count(packetPushStarted) - count(packetPulled) - count(packetRemoved) - count(packetDropped)))"
attr title "queue length, last"
attr unit pk
scalar testnet.host[0].eth[0].queue queueLength:max 0
attr autoWarmupFilter false
attr interpolationmode sample-hold
attr recordingmode max
attr source "warmup(atomic(constant0(packetPushEnded) + count(packetPushStarted) - count(packetPulled) - count(packetRemoved) - count(packetDropped)))"
attr title "queue length, max"
attr unit pk
scalar testnet.host[0].eth[0].queue queueLength:timeavg 0
attr autoWarmupFilter false
attr interpolationmode sample-hold
attr recordingmode timeavg
attr source "warmup(atomic(constant0(packetPushEnded) + count(packetPushStarted) - count(packetPulled) - count(packetRemoved) - count(packetDropped)))"
attr title "queue length, timeavg"
attr unit pk
scalar testnet.host[0].eth[0].queue queueBitLength:last 0
attr autoWarmupFilter false
attr interpolationmode sample-hold
attr recordingmode last
attr source "warmup(atomic(constant0(packetPushEnded) + sum(packetLength(packetPushStarted)) - sum(packetLength(packetPulled)) - sum(packetLength(packetRemoved)) - sum(packetLength(packetDropped))))"
attr title "queue bit length, last"
attr unit b
scalar testnet.host[0].eth[0].queue queueBitLength:max 0
attr autoWarmupFilter false
attr interpolationmode sample-hold
attr recordingmode max
attr source "warmup(atomic(constant0(packetPushEnded) + sum(packetLength(packetPushStarted)) - sum(packetLength(packetPulled)) - sum(packetLength(packetRemoved)) - sum(packetLength(packetDropped))))"
attr title "queue bit length, max"
attr unit b
scalar testnet.host[0].eth[0].queue queueBitLength:timeavg 0
attr autoWarmupFilter false
attr interpolationmode sample-hold
attr recordingmode timeavg
attr source "warmup(atomic(constant0(packetPushEnded) + sum(packetLength(packetPushStarted)) - sum(packetLength(packetPulled)) - sum(packetLength(packetRemoved)) - sum(packetLength(packetDropped))))"
attr title "queue bit length, timeavg"
attr unit b
statistic testnet.host[0].eth[0].queue queueingTime:histogram
field count 56
field mean 0
field stddev 0
field min 0
field max 0
field sum 0
field sqrsum 0
attr interpolationmode none
attr recordingmode histogram
attr source queueingTime(packetPulled)
attr title "queueing times"
attr unit s
bin	-inf	0
bin	-0.5	0
bin	-0.48	0
bin	-0.46	0
bin	-0.44	0
bin	-0.42	0
bin	-0.4	0
bin	-0.38	0
bin	-0.36	0
bin	-0.34	0
bin	-0.32	0
bin	-0.3	0
bin	-0.28	0
bin	-0.26	0
bin	-0.24	0
bin	-0.22	0
bin	-0.2	0
bin	-0.18	0
bin	-0.16	0
bin	-0.14	0
bin	-0.12	0
bin	-0.1	0
bin	-0.08	0
bin	-0.06	0
bin	-0.04	0
bin	-0.02	0
bin	0	56
bin	0.02	0
bin	0.04	0
bin	0.06	0
bin	0.08	0
bin	0.1	0
bin	0.12	0
bin	0.14	0
bin	0.16	0
bin	0.18	0
bin	0.2	0
bin	0.22	0
bin	0.24	0
bin	0.26	0
bin	0.28	0
bin	0.3	0
bin	0.32	0
bin	0.34	0
bin	0.36	0
bin	0.38	0
bin	0.4	0
bin	0.42	0
bin	0.44	0
bin	0.46	0
bin	0.48	0
bin	0.5	0
scalar testnet.host[0].eth[0].queue outgoingPackets:count 56
attr recordingmode count
attr source packetPulled
attr title "outgoing packets, count"
attr unit pk
scalar testnet.host[0].eth[0].queue outgoingPacketLengths:sum 50576
attr interpolationmode none
attr recordingmode sum
attr source packetLength(packetPulled)
attr title "outgoing packet lengths, sum"
attr unit b
statistic testnet.host[0].eth[0].queue outgoingPacketLengths:histogram
field count 56
field mean 903.14285714286
field stddev 416.65871923157
field min 368
field max 1760
field sum 50576
field sqrsum 55225600
attr interpolationmode none
attr recordingmode histogram
attr source packetLength(packetPulled)
attr title "outgoing packet lengths"
attr unit b
bin	-inf	0
bin	20	0
bin	40	0
bin	60	0
bin	80	0
bin	100	0
bin	120	0
bin	140	0
bin	160	0
bin	180	0
bin	200	0
bin	220	0
bin	240	0
bin	260	0
bin	280	0
bin	300	0
bin	320	0
bin	340	0
bin	360	6
bin	380	0
bin	400	0
bin	420	0
bin	440	0
bin	460	0
bin	480	0
bin	500	0
bin	520	0
bin	540	0
bin	560	0
bin	580	9
bin	600	0
bin	620	0
bin	640	0
bin	660	0
bin	680	0
bin	700	0
bin	720	11
bin	740	5
bin	760	0
bin	780	0
bin	800	0
bin	820	0
bin	840	0
bin	860	0
bin	880	11
bin	900	1
bin	920	0
bin	940	0
bin	960	0
bin	980	0
bin	1000	0
bin	1020	1
bin	1040	0
bin	1060	0
bin	1080	0
bin	1100	0
bin	1120	0
bin	1140	0
bin	1160	0
bin	1180	0
bin	1200	0
bin	1220	0
bin	1240	0
bin	1260	0
bin	1280	0
bin	1300	0
bin	1320	0
bin	1340	0
bin	1360	0
bin	1380	0
bin	1400	0
bin	1420	0
bin	1440	0
bin	1460	0
bin	1480	0
bin	1500	3
bin	1520	0
bin	1540	0
bin	1560	0
bin	1580	0
bin	1600	3
bin	1620	0
bin	1640	0
bin	1660	3
bin	1680	0
bin	1700	0
bin	1720	0
bin	1740	0
bin	1760	3
bin	1780	0
bin	1800	0
bin	1820	0
bin	1840	0
bin	1860	0
bin	1880	0
bin	1900	0
bin	1920	0
bin	1940	0
bin	1960	0
bin	1980	0
bin	2000	0
bin	2020	0
bin	2040	0
bin	2060	0
bin	2080	0
bin	2100	0
bin	2120	0
statistic testnet.host[0].eth[0].queue flowQueueingTime:histogram
field count 0
field mean -nan
field stddev nan
field min nan
field max nan
field sum 0
field sqrsum 0
attr interpolationmode none
attr recordingmode histogram
attr source queueingTime(demuxFlow(packetPulled))
attr title "flow queueing times"
attr unit s
bin	-inf	0
bin	0	0
bin	1	0
scalar testnet.host[0].eth[0].queue incomingPackets:count 56
attr recordingmode count
attr source packetPushStarted
attr title "incoming packets, count"
attr unit pk
scalar testnet.host[0].eth[0].queue incomingPacketLengths:sum 50576
attr interpolationmode none
attr recordingmode sum
attr source packetLength(packetPushStarted)
attr title "incoming packet lengths, sum"
attr unit b
statistic testnet.host[0].eth[0].queue incomingPacketLengths:histogram
field count 56
field mean 903.14285714286
field stddev 416.65871923157
field min 368
field max 1760
field sum 50576
field sqrsum 55225600
attr interpolationmode none
attr recordingmode histogram
attr source packetLength(packetPushStarted)
attr title "incoming packet lengths"
attr unit b
bin	-inf	0
bin	20	0
bin	40	0
bin	60	0
bin	80	0
bin	100	0
bin	120	0
bin	140	0
bin	160	0
bin	180	0
bin	200	0
bin	220	0
bin	240	0
bin	260	0
bin	280	0
bin	300	0
bin	320	0
bin	340	0
bin	360	6
bin	380	0
bin	400	0
bin	420	0
bin	440	0
bin	460	0
bin	480	0
bin	500	0
bin	520	0
bin	540	0
bin	560	0
bin	580	9
bin	600	0
bin	620	0
bin	640	0
bin	660	0
bin	680	0
bin	700	0
bin	720	11
bin	740	5
bin	760	0
bin	780	0
bin	800	0
bin	820	0
bin	840	0
bin	860	0
bin	880	11
bin	900	1
bin	920	0
bin	940	0
bin	960	0
bin	980	0
bin	1000	0
bin	1020	1
bin	1040	0
bin	1060	0
bin	1080	0
bin	1100	0
bin	1120	0
bin	1140	0
bin	1160	0
bin	1180	0
bin	1200	0
bin	1220	0
bin	1240	0
bin	1260	0
bin	1280	0
bin	1300	0
bin	1320	0
bin	1340	0
bin	1360	0
bin	1380	0
bin	1400	0
bin	1420	0
bin	1440	0
bin	1460	0
bin	1480	0
bin	1500	3
bin	1520	0
bin	1540	0
bin	1560	0
bin	1580	0
bin	1600	3
bin	1620	0
bin	1640	0
bin	1660	3
bin	1680	0
bin	1700	0
bin	1720	0
bin	1740	0
bin	1760	3
bin	1780	0
bin	1800	0
bin	1820	0
bin	1840	0
bin	1860	0
bin	1880	0
bin	1900	0
bin	1920	0
bin	1940	0
bin	1960	0
bin	1980	0
bin	2000	0
bin	2020	0
bin	2040	0
bin	2060	0
bin	2080	0
bin	2100	0
bin	2120	0
scalar testnet.host[0].eth[0].queue droppedPacketsQueueOverflow:count 0
attr interpolationmode none
attr recordingmode count
attr source packetDropReasonIsQueueOverflow(packetDropped)
attr title "dropped packets: queue overflow, count"
attr unit pk
scalar testnet.host[0].eth[0].queue droppedPacketLengthsQueueOverflow:sum 0
attr interpolationmode none
attr recordingmode sum
attr source packetLength(packetDropReasonIsQueueOverflow(packetDropped))
attr title "dropped packet lengths: queue overflow, sum"
attr unit b
par testnet.host[0].eth[0].mac typename "\"inet.linklayer.ethernet.basic.EthernetMac\""
par testnet.host[0].eth[0].mac interfaceTableModule "\"testnet.host[0].interfaceTable\""
par testnet.host[0].eth[0].mac displayStringTextFormat "\"rate: %b\\nsent: %s, rcvd: %r\\nqueue: %q, drop: %d\""
par testnet.host[0].eth[0].mac sendRawBytes false
par testnet.host[0].eth[0].mac promiscuous true
par testnet.host[0].eth[0].mac duplexMode true
par testnet.host[0].eth[0].mac mtu 1500B
attr unit B
par testnet.host[0].eth[0].mac fcsMode "\"computed\""
attr enum declared,computed
par testnet.host[0].eth[0].mac stopOperationExtraTime -1s
attr unit s
par testnet.host[0].eth[0].mac stopOperationTimeout 2s
attr unit s
scalar testnet.host[0].eth[0].mac "simulated time" 1453.794877708
scalar testnet.host[0].eth[0].mac full-duplex 1
scalar testnet.host[0].eth[0].mac "frames/sec sent" 0.038519877087672
scalar testnet.host[0].eth[0].mac "frames/sec rcvd" 0.0034392747399708
scalar testnet.host[0].eth[0].mac "bits/sec sent" 35.383258524819
scalar testnet.host[0].eth[0].mac "bits/sec rcvd" 1.760908666865
scalar testnet.host[0].eth[0].mac "rx channel idle (%)" 99.999998018978
scalar testnet.host[0].eth[0].mac "rx channel utilization (%)" 1.9810222502232e-06
scalar testnet.host[0].eth[0].mac rxPausePkUnits:count 0
attr interpolationmode none
attr recordingmode count
attr title "pause units received, count"
scalar testnet.host[0].eth[0].mac rxPausePkUnits:sum 0
attr interpolationmode none
attr recordingmode sum
attr title "pause units received, sum"
scalar testnet.host[0].eth[0].mac txPausePkUnits:count 0
attr interpolationmode none
attr recordingmode count
attr title "pause units sent, count"
scalar testnet.host[0].eth[0].mac txPausePkUnits:sum 0
attr interpolationmode none
attr recordingmode sum
attr title "pause units sent, sum"
scalar testnet.host[0].eth[0].mac rxPkOk:count 5
attr interpolationmode none
attr recordingmode count
attr source rxPkOk
attr title "packets received OK, count"
scalar testnet.host[0].eth[0].mac rxPkOk:sum(packetBytes) 320
attr interpolationmode none
attr recordingmode sum(packetBytes)
attr source rxPkOk
attr title "packets received OK, sum(packetBytes)"
scalar testnet.host[0].eth[0].mac txPk:count 56
attr interpolationmode none
attr recordingmode count
attr source packetSentToLower
attr title "packets transmitted, count"
scalar testnet.host[0].eth[0].mac txPk:sum(packetBytes) 6430
attr interpolationmode none
attr recordingmode sum(packetBytes)
attr source packetSentToLower
attr title "packets transmitted, sum(packetBytes)"
scalar testnet.host[0].eth[0].mac packetReceivedFromUpper:count 56
attr interpolationmode none
attr recordingmode count
attr source packetReceivedFromUpper
attr title "packet bytes from higher layer, count"
scalar testnet.host[0].eth[0].mac packetReceivedFromUpper:sum(packetBytes) 6322
attr interpolationmode none
attr recordingmode sum(packetBytes)
attr source packetReceivedFromUpper
attr title "packet bytes from higher layer, sum(packetBytes)"
scalar testnet.host[0].eth[0].mac passedUpPk:count 5
attr interpolationmode none
attr recordingmode count
attr source packetSentToUpper
attr title "packets passed to higher layer, count"
scalar testnet.host[0].eth[0].mac passedUpPk:sum(packetBytes) 320
attr interpolationmode none
attr recordingmode sum(packetBytes)
attr source packetSentToUpper
attr title "packets passed to higher layer, sum(packetBytes)"
scalar testnet.host[0].eth[0].mac packetDropIncorrectlyReceived:count 0
attr interpolationmode none
attr recordingmode count
attr source packetDropReasonIsIncorrectlyReceived(packetDropped)
attr title "packet drop: incorrectly received, count"
scalar testnet.host[0].eth[0].mac packetDropIncorrectlyReceived:sum(packetBytes) 0
attr interpolationmode none
attr recordingmode sum(packetBytes)
attr source packetDropReasonIsIncorrectlyReceived(packetDropped)
attr title "packet drop: incorrectly received, sum(packetBytes)"
scalar testnet.host[0].eth[0].mac packetDropInterfaceDown:count 0
attr interpolationmode none
attr recordingmode count
attr source packetDropReasonIsInterfaceDown(packetDropped)
attr title "packet drop: interface down, count"
scalar testnet.host[0].eth[0].mac packetDropInterfaceDown:sum(packetBytes) 0
attr interpolationmode none
attr recordingmode sum(packetBytes)
attr source packetDropReasonIsInterfaceDown(packetDropped)
attr title "packet drop: interface down, sum(packetBytes)"
scalar testnet.host[0].eth[0].mac packetDropNotAddressedToUs:count 0
attr interpolationmode none
attr recordingmode count
attr source packetDropReasonIsNotAddressedToUs(packetDropped)
attr title "packet drop: not addressed to us, count"
scalar testnet.host[0].eth[0].mac packetDropNotAddressedToUs:sum(packetBytes) 0
attr interpolationmode none
attr recordingmode sum(packetBytes)
attr source packetDropReasonIsNotAddressedToUs(packetDropped)
attr title "packet drop: not addressed to us, sum(packetBytes)"
par testnet.host[0].eth[0] typename "\"inet.emulation.linklayer.ethernet.ExtUpperEthernetInterface\""
par testnet.host[0].eth[0] displayStringTextFormat "\"%a (%i)\\n%m\""
par testnet.host[0].eth[0] recordPcap false
par testnet.host[0].eth[0] numPcapRecorders 0
par testnet.host[0].eth[0] isWireless false
par testnet.host[0].eth[0] interfaceTableModule "\"testnet.host[0].interfaceTable\""
par testnet.host[0].eth[0] device "\"tap0\""
par testnet.host[0].eth[0] namespace "\"\""
par testnet.host[0].eth[0] copyConfiguration "\"copyFromExt\""
attr enum ,copyToExt,copyFromExt
par testnet.host[0].eth[0] address "\"0A-AA-00-00-00-01\""
attr mutable ""
par testnet.host[0].eth[0] broadcast true
par testnet.host[0].eth[0] multicast true
par testnet.host[0].eth[0] pointToPoint false
par testnet.host[0].eth[0] mtu 4470B
attr unit B
par testnet.host[0].eth[0] csmacdSupport false
par testnet.host[0].eth[0] bitrate 1e+08bps
attr unit bps
scalar testnet.host[0].eth[0] packetDropInterfaceDown:count 0
attr interpolationmode none
attr recordingmode count
attr source packetDropReasonIsInterfaceDown(packetDropped)
attr title "packet drops: interface down, count"
scalar testnet.host[0].eth[0] packetDropInterfaceDown:sum(packetBytes) 0
attr interpolationmode none
attr recordingmode sum(packetBytes)
attr source packetDropReasonIsInterfaceDown(packetDropped)
attr title "packet drops: interface down, sum(packetBytes)"
scalar testnet.host[0].eth[0] packetDropNoCarrier:count 0
attr interpolationmode none
attr recordingmode count
attr source packetDropReasonIsNoCarrier(packetDropped)
attr title "packet drops: no carrier, count"
scalar testnet.host[0].eth[0] packetDropNoCarrier:sum(packetBytes) 0
attr interpolationmode none
attr recordingmode sum(packetBytes)
attr source packetDropReasonIsNoCarrier(packetDropped)
attr title "packet drops: no carrier, sum(packetBytes)"
par testnet.host[0].ipv4.transportIn.channel typename "\"ned.IdealChannel\""
par testnet.host[0].ipv4.up.out[0].channel typename "\"ned.IdealChannel\""
par testnet.host[0].ipv4.lp.out[2].channel typename "\"ned.IdealChannel\""
par testnet.host[0].ipv4.ifIn.channel typename "\"ned.IdealChannel\""
par testnet.host[0].ipv4.configurator typename "\"inet.networklayer.configurator.ipv4.Ipv4NodeConfigurator\""
par testnet.host[0].ipv4.configurator interfaceTableModule "\"testnet.host[0].interfaceTable\""
par testnet.host[0].ipv4.configurator routingTableModule "\"testnet.host[0].ipv4.routingTable\""
par testnet.host[0].ipv4.configurator networkConfiguratorModule "\"configurator\""
par testnet.host[0].ipv4.configurator configureRoutingTable true
par testnet.host[0].ipv4.routingTable typename "\"inet.networklayer.ipv4.Ipv4RoutingTable\""
par testnet.host[0].ipv4.routingTable interfaceTableModule "\"testnet.host[0].interfaceTable\""
par testnet.host[0].ipv4.routingTable routerId "\"auto\""
par testnet.host[0].ipv4.routingTable netmaskRoutes "\"*\""
par testnet.host[0].ipv4.routingTable forwarding true
par testnet.host[0].ipv4.routingTable multicastForwarding false
par testnet.host[0].ipv4.routingTable useAdminDist false
par testnet.host[0].ipv4.routingTable routingFile "\"\""
par testnet.host[0].ipv4.natTable typename "\"inet.networklayer.ipv4.Ipv4NatTable\""
par testnet.host[0].ipv4.natTable networkProtocolModule "\"^.ip\""
par testnet.host[0].ipv4.natTable config "<config/> at content:1"
par testnet.host[0].ipv4.up typename "\"inet.common.MessageDispatcher\""
par testnet.host[0].ipv4.up displayStringTextFormat "\"processed %p pk (%l)\""
par testnet.host[0].ipv4.up forwardServiceRegistration true
par testnet.host[0].ipv4.up forwardProtocolRegistration true
par testnet.host[0].ipv4.igmp typename "\"inet.networklayer.ipv4.Igmpv2\""
par testnet.host[0].ipv4.igmp interfaceTableModule "\"testnet.host[0].interfaceTable\""
par testnet.host[0].ipv4.igmp routingTableModule "\"testnet.host[0].ipv4.routingTable\""
par testnet.host[0].ipv4.igmp crcMode "\"computed\""
attr enum declared,computed
par testnet.host[0].ipv4.igmp enabled true
par testnet.host[0].ipv4.igmp robustnessVariable 2
par testnet.host[0].ipv4.igmp queryInterval 125s
attr unit s
par testnet.host[0].ipv4.igmp queryResponseInterval 10s
attr unit s
par testnet.host[0].ipv4.igmp groupMembershipInterval 260s
attr unit s
par testnet.host[0].ipv4.igmp otherQuerierPresentInterval 255s
attr unit s
par testnet.host[0].ipv4.igmp startupQueryInterval 31.25s
attr unit s
par testnet.host[0].ipv4.igmp startupQueryCount 2
par testnet.host[0].ipv4.igmp lastMemberQueryInterval 1s
attr unit s
par testnet.host[0].ipv4.igmp lastMemberQueryCount 2
par testnet.host[0].ipv4.igmp unsolicitedReportInterval 10s
attr unit s
par testnet.host[0].ipv4.icmp typename "\"inet.networklayer.ipv4.Icmp\""
par testnet.host[0].ipv4.icmp interfaceTableModule "\"testnet.host[0].interfaceTable\""
par testnet.host[0].ipv4.icmp routingTableModule "\"testnet.host[0].ipv4.routingTable\""
par testnet.host[0].ipv4.icmp crcMode "\"computed\""
attr enum declared,computed
attr mutable ""
par testnet.host[0].ipv4.icmp quoteLength 8B
attr mutable ""
attr unit B
par testnet.host[0].ipv4.mp typename "\"inet.common.MessageDispatcher\""
par testnet.host[0].ipv4.mp displayStringTextFormat "\"processed %p pk (%l)\""
par testnet.host[0].ipv4.mp forwardServiceRegistration true
par testnet.host[0].ipv4.mp forwardProtocolRegistration true
par testnet.host[0].ipv4.ip typename "\"inet.networklayer.ipv4.Ipv4\""
par testnet.host[0].ipv4.ip interfaceTableModule "\"testnet.host[0].interfaceTable\""
par testnet.host[0].ipv4.ip routingTableModule "\"testnet.host[0].ipv4.routingTable\""
par testnet.host[0].ipv4.ip arpModule "\"testnet.host[0].ipv4.arp\""
par testnet.host[0].ipv4.ip icmpModule "\"testnet.host[0].ipv4.icmp\""
par testnet.host[0].ipv4.ip crcMode "\"computed\""
attr enum declared,computed
par testnet.host[0].ipv4.ip timeToLive 32
par testnet.host[0].ipv4.ip multicastTimeToLive 32
par testnet.host[0].ipv4.ip fragmentTimeout 60s
attr unit s
par testnet.host[0].ipv4.ip limitedBroadcast false
par testnet.host[0].ipv4.ip directBroadcastInterfaces "\"\""
scalar testnet.host[0].ipv4.ip packetDropAddressResolutionFailed:count 0
attr interpolationmode none
attr recordingmode count
attr source packetDropReasonIsAddressResolutionFailed(packetDropped)
attr title "packet drop: address resolution failed, count"
scalar testnet.host[0].ipv4.ip packetDropAddressResolutionFailed:sum(packetBytes) 0
attr interpolationmode none
attr recordingmode sum(packetBytes)
attr source packetDropReasonIsAddressResolutionFailed(packetDropped)
attr title "packet drop: address resolution failed, sum(packetBytes)"
scalar testnet.host[0].ipv4.ip packetDropHopLimitReached:count 0
attr interpolationmode none
attr recordingmode count
attr source packetDropReasonIsHopLimitReached(packetDropped)
attr title "packet drop: hop limit reached, count"
scalar testnet.host[0].ipv4.ip packetDropHopLimitReached:sum(packetBytes) 0
attr interpolationmode none
attr recordingmode sum(packetBytes)
attr source packetDropReasonIsHopLimitReached(packetDropped)
attr title "packet drop: hop limit reached, sum(packetBytes)"
scalar testnet.host[0].ipv4.ip packetDropForwardingDisabled:count 0
attr interpolationmode none
attr recordingmode count
attr source packetDropReasonIsForwardingDisabled(packetDropped)
attr title "packet drop: forwarding disabled, count"
scalar testnet.host[0].ipv4.ip packetDropForwardingDisabled:sum(packetBytes) 0
attr interpolationmode none
attr recordingmode sum(packetBytes)
attr source packetDropReasonIsForwardingDisabled(packetDropped)
attr title "packet drop: forwarding disabled, sum(packetBytes)"
scalar testnet.host[0].ipv4.ip packetDropNoInterfaceFound:count 0
attr interpolationmode none
attr recordingmode count
attr source packetDropReasonIsNoInterfaceFound(packetDropped)
attr title "packet drop: no interface found, count"
scalar testnet.host[0].ipv4.ip packetDropNoInterfaceFound:sum(packetBytes) 0
attr interpolationmode none
attr recordingmode sum(packetBytes)
attr source packetDropReasonIsNoInterfaceFound(packetDropped)
attr title "packet drop: no interface found, sum(packetBytes)"
scalar testnet.host[0].ipv4.ip packetDropNoRouteFound:count 0
attr interpolationmode none
attr recordingmode count
attr source packetDropReasonIsNoRouteFound(packetDropped)
attr title "packet drop: no route found, count"
scalar testnet.host[0].ipv4.ip packetDropNoRouteFound:sum(packetBytes) 0
attr interpolationmode none
attr recordingmode sum(packetBytes)
attr source packetDropReasonIsNoRouteFound(packetDropped)
attr title "packet drop: no route found, sum(packetBytes)"
scalar testnet.host[0].ipv4.ip packetDropUndefined:count 0
attr interpolationmode none
attr recordingmode count
attr source packetDropReasonIsUndefined(packetDropped)
attr title "packet drop: undefined, count"
scalar testnet.host[0].ipv4.ip packetDropUndefined:sum(packetBytes) 0
attr interpolationmode none
attr recordingmode sum(packetBytes)
attr source packetDropReasonIsUndefined(packetDropped)
attr title "packet drop: undefined, sum(packetBytes)"
par testnet.host[0].ipv4.arp typename "\"inet.networklayer.arp.ipv4.Arp\""
par testnet.host[0].ipv4.arp interfaceTableModule "\"testnet.host[0].interfaceTable\""
par testnet.host[0].ipv4.arp routingTableModule "\"testnet.host[0].ipv4.routingTable\""
par testnet.host[0].ipv4.arp retryTimeout 1s
attr unit s
par testnet.host[0].ipv4.arp retryCount 3
par testnet.host[0].ipv4.arp cacheTimeout 120s
attr unit s
par testnet.host[0].ipv4.arp proxyArpInterfaces "\"\""
scalar testnet.host[0].ipv4.arp arpResolutionFailed:count 0
attr recordingmode count
attr title "ARP failed resolutions, count"
scalar testnet.host[0].ipv4.arp arpResolutionCompleted:count 0
attr recordingmode count
attr title "ARP completed resolutions, count"
scalar testnet.host[0].ipv4.arp arpResolutionInitiated:count 0
attr recordingmode count
attr title "ARP initiated resolutions, count"
scalar testnet.host[0].ipv4.arp arpReplySent:count 0
attr recordingmode count
attr source arpReplySent
attr title "ARP replies sent, count"
scalar testnet.host[0].ipv4.arp arpReplySent:sum(packetBytes) 0
attr recordingmode sum(packetBytes)
attr source arpReplySent
attr title "ARP replies sent, sum(packetBytes)"
scalar testnet.host[0].ipv4.arp arpRequestSent:count 0
attr recordingmode count
attr source arpRequestSent
attr title "ARP request sent, count"
scalar testnet.host[0].ipv4.arp arpRequestSent:sum(packetBytes) 0
attr recordingmode sum(packetBytes)
attr source arpRequestSent
attr title "ARP request sent, sum(packetBytes)"
par testnet.host[0].ipv4.lp typename "\"inet.common.MessageDispatcher\""
par testnet.host[0].ipv4.lp displayStringTextFormat "\"processed %p pk (%l)\""
par testnet.host[0].ipv4.lp forwardServiceRegistration true
par testnet.host[0].ipv4.lp forwardProtocolRegistration true
par testnet.host[0].ipv4 typename "\"inet.networklayer.ipv4.Ipv4NetworkLayer\""
par testnet.host[0].ipv4 forwarding true
par testnet.host[0].ipv4 multicastForwarding false
par testnet.host[0].ipv4 interfaceTableModule "\"testnet.host[0].interfaceTable\""
par testnet.host[0].ipv4 displayStringTextFormat "\"%i\""
par testnet.host[0].nl typename "\"inet.common.MessageDispatcher\""
par testnet.host[0].nl displayStringTextFormat "\"processed %p pk (%l)\""
par testnet.host[0].nl forwardServiceRegistration true
par testnet.host[0].nl forwardProtocolRegistration true
par testnet.host[0].udp.crcInsertion typename "\"inet.transportlayer.udp.UdpCrcInsertionHook\""
par testnet.host[0].udp typename "\"inet.transportlayer.udp.Udp\""
par testnet.host[0].udp interfaceTableModule "\"testnet.host[0].interfaceTable\""
par testnet.host[0].udp icmpModule "\"^.ipv4.icmp\""
par testnet.host[0].udp icmpv6Module "\"^.ipv6.icmpv6\""
par testnet.host[0].udp crcMode "\"computed\""
attr enum disabled,declared,computed
par testnet.host[0].udp defaultMulticastLoop true
scalar testnet.host[0].udp packetReceived:count 0
attr interpolationmode none
attr recordingmode count
attr source packetReceived
attr title "packets received, count"
scalar testnet.host[0].udp packetReceived:sum(packetBytes) 0
attr interpolationmode none
attr recordingmode sum(packetBytes)
attr source packetReceived
attr title "packets received, sum(packetBytes)"
scalar testnet.host[0].udp packetSent:count 0
attr interpolationmode none
attr recordingmode count
attr source packetSent
attr title "packets sent, count"
scalar testnet.host[0].udp packetSent:sum(packetBytes) 0
attr interpolationmode none
attr recordingmode sum(packetBytes)
attr source packetSent
attr title "packets sent, sum(packetBytes)"
scalar testnet.host[0].udp passedUpPk:count 0
attr interpolationmode none
attr recordingmode count
attr source packetSentToUpper
attr title "packets passed up, count"
scalar testnet.host[0].udp droppedPkWrongPort:count 0
attr interpolationmode none
attr recordingmode count
attr source packetDropReasonIsNoPortFound(packetDropped)
attr title "packets dropped (wrong port), count"
scalar testnet.host[0].udp droppedPkBadChecksum:count 0
attr interpolationmode none
attr recordingmode count
attr source packetDropReasonIsIncorrectlyReceived(packetDropped)
attr title "packets dropped (checksum error), count"
par testnet.host[0].tcp.crcInsertion typename "\"inet.transportlayer.tcp_common.TcpCrcInsertionHook\""
par testnet.host[0].tcp typename "\"inet.transportlayer.tcp.Tcp\""
par testnet.host[0].tcp crcMode "\"computed\""
attr enum declared,computed
par testnet.host[0].tcp advertisedWindow 7504
par testnet.host[0].tcp delayedAcksEnabled false
par testnet.host[0].tcp nagleEnabled true
par testnet.host[0].tcp limitedTransmitEnabled false
par testnet.host[0].tcp increasedIWEnabled false
par testnet.host[0].tcp sackSupport false
par testnet.host[0].tcp windowScalingSupport false
par testnet.host[0].tcp windowScalingFactor -1
par testnet.host[0].tcp timestampSupport false
par testnet.host[0].tcp mss 536
par testnet.host[0].tcp msl 120s
attr unit s
par testnet.host[0].tcp tcpAlgorithmClass "\"TcpReno\""
attr enum TcpVegas,TcpWestwood,TcpNewReno,TcpReno,TcpTahoe,TcpNoCongestionControl
par testnet.host[0].tcp useDataNotification false
par testnet.host[0].tcp dupthresh 3
par testnet.host[0].tcp initialSsthresh 4294967295
par testnet.host[0].tcp stopOperationExtraTime 0s
attr unit s
par testnet.host[0].tcp stopOperationTimeout 2s
attr unit s
par testnet.host[0].tcp ecnWillingness false
par testnet.host[0].tcp dctcpGamma 0.0625
par testnet.host[0].tn typename "\"inet.common.MessageDispatcher\""
par testnet.host[0].tn displayStringTextFormat "\"processed %p pk (%l)\""
par testnet.host[0].tn forwardServiceRegistration true
par testnet.host[0].tn forwardProtocolRegistration true
par testnet.host[0].at typename "\"inet.common.MessageDispatcher\""
par testnet.host[0].at displayStringTextFormat "\"processed %p pk (%l)\""
par testnet.host[0].at forwardServiceRegistration true
par testnet.host[0].at forwardProtocolRegistration true
par testnet.host[0] typename "\"inet.node.inet.StandardHost\""
par testnet.host[0] hasStatus false
par testnet.host[0] osgModel "\"\""
par testnet.host[0] osgModelColor "\"\""
par testnet.host[0] canvasImage "\"\""
par testnet.host[0] canvasImageColor "\"\""
par testnet.host[0] recordPcap false
par testnet.host[0] numPcapRecorders 0
par testnet.host[0] numLoInterfaces 1
par testnet.host[0] numWlanInterfaces 0
par testnet.host[0] numEthInterfaces 0
par testnet.host[0] numPppInterfaces 0
par testnet.host[0] numTunInterfaces 0
par testnet.host[0] numVirtInterfaces 0
par testnet.host[0] fcsMode "\"computed\""
attr enum declared,computed
par testnet.host[0] hasIpv4 true
par testnet.host[0] hasIpv6 false
par testnet.host[0] hasGn false
par testnet.host[0] forwarding true
par testnet.host[0] multicastForwarding false
par testnet.host[0] hasUdp true
par testnet.host[0] hasTcp true
par testnet.host[0] hasSctp false
par testnet.host[0] numApps 0
par testnet.host[1].ethg$i[0].channel typename "\"ned.IdealChannel\""
par testnet.host[1].eth[0].phys$o.channel typename "\"ned.IdealChannel\""
par testnet.host[1].interfaceTable typename "\"inet.networklayer.common.InterfaceTable\""
par testnet.host[1].interfaceTable displayAddresses false
par testnet.host[1].cb typename "\"inet.common.MessageDispatcher\""
par testnet.host[1].cb displayStringTextFormat "\"processed %p pk (%l)\""
par testnet.host[1].cb forwardServiceRegistration true
par testnet.host[1].cb forwardProtocolRegistration true
par testnet.host[1].bl typename "\"inet.common.MessageDispatcher\""
par testnet.host[1].bl displayStringTextFormat "\"processed %p pk (%l)\""
par testnet.host[1].bl forwardServiceRegistration true
par testnet.host[1].bl forwardProtocolRegistration true
par testnet.host[1].ethernet typename "\"inet.linklayer.ethernet.basic.EthernetEncapsulation\""
par testnet.host[1].ethernet registerProtocol true
par testnet.host[1].ethernet interfaceTableModule "\"testnet.host[1].interfaceTable\""
par testnet.host[1].ethernet fcsMode "\"computed\""
attr enum declared,computed
par testnet.host[1].ethernet stopOperationExtraTime -1s
attr unit s
par testnet.host[1].ethernet stopOperationTimeout 2s
attr unit s
scalar testnet.host[1].ethernet pauseSent:count 0
attr recordingmode count
attr title "pause sent, count"
scalar testnet.host[1].ethernet pauseSent:sum 0
attr recordingmode sum
attr title "pause sent, sum"
scalar testnet.host[1].ethernet decapPk:count 0
attr interpolationmode none
attr recordingmode count
attr source decapPk
attr title "packets decapsulated, count"
scalar testnet.host[1].ethernet decapPk:sum(packetBytes) 0
attr interpolationmode none
attr recordingmode sum(packetBytes)
attr source decapPk
attr title "packets decapsulated, sum(packetBytes)"
scalar testnet.host[1].ethernet encapPk:count 0
attr interpolationmode none
attr recordingmode count
attr source encapPk
attr title "packets encapsulated, count"
scalar testnet.host[1].ethernet encapPk:sum(packetBytes) 0
attr interpolationmode none
attr recordingmode sum(packetBytes)
attr source encapPk
attr title "packets encapsulated, sum(packetBytes)"
par testnet.host[1].li typename "\"inet.common.MessageDispatcher\""
par testnet.host[1].li displayStringTextFormat "\"processed %p pk (%l)\""
par testnet.host[1].li forwardServiceRegistration true
par testnet.host[1].li forwardProtocolRegistration true
par testnet.host[1].lo[0].upperLayerIn.channel typename "\"ned.IdealChannel\""
par testnet.host[1].lo[0].lo.upperLayerOut.channel typename "\"ned.IdealChannel\""
par testnet.host[1].lo[0].lo typename "\"inet.linklayer.loopback.Loopback\""
par testnet.host[1].lo[0].lo interfaceTableModule "\"testnet.host[1].interfaceTable\""
par testnet.host[1].lo[0].lo mtu 4470B
attr unit B
scalar testnet.host[1].lo[0].lo rcvdPkFromHl:count 0
attr interpolationmode none
attr recordingmode count
attr source packetReceivedFromUpper
attr title "packets received from higher layer, count"
scalar testnet.host[1].lo[0].lo rcvdPkFromHl:sum(packetBytes) 0
attr interpolationmode none
attr recordingmode sum(packetBytes)
attr source packetReceivedFromUpper
attr title "packets received from higher layer, sum(packetBytes)"
scalar testnet.host[1].lo[0].lo passedUpPk:count 0
attr interpolationmode none
attr recordingmode count
attr source packetSentToUpper
attr title "packets passed to higher layer, count"
scalar testnet.host[1].lo[0].lo passedUpPk:sum(packetBytes) 0
attr interpolationmode none
attr recordingmode sum(packetBytes)
attr source packetSentToUpper
attr title "packets passed to higher layer, sum(packetBytes)"
par testnet.host[1].lo[0] typename "\"inet.linklayer.loopback.LoopbackInterface\""
par testnet.host[1].lo[0] displayStringTextFormat "\"%a (%i)\\n%m\""
par testnet.host[1].lo[0] recordPcap false
par testnet.host[1].lo[0] numPcapRecorders 0
par testnet.host[1].lo[0] interfaceTableModule "\"testnet.host[1].interfaceTable\""
scalar testnet.host[1].lo[0] packetDropInterfaceDown:count 0
attr interpolationmode none
attr recordingmode count
attr source packetDropReasonIsInterfaceDown(packetDropped)
attr title "packet drops: interface down, count"
scalar testnet.host[1].lo[0] packetDropInterfaceDown:sum(packetBytes) 0
attr interpolationmode none
attr recordingmode sum(packetBytes)
attr source packetDropReasonIsInterfaceDown(packetDropped)
attr title "packet drops: interface down, sum(packetBytes)"
scalar testnet.host[1].lo[0] packetDropNoCarrier:count 0
attr interpolationmode none
attr recordingmode count
attr source packetDropReasonIsNoCarrier(packetDropped)
attr title "packet drops: no carrier, count"
scalar testnet.host[1].lo[0] packetDropNoCarrier:sum(packetBytes) 0
attr interpolationmode none
attr recordingmode sum(packetBytes)
attr source packetDropReasonIsNoCarrier(packetDropped)
attr title "packet drops: no carrier, sum(packetBytes)"
par testnet.host[1].eth[0].mac.phys$o.channel typename "\"ned.IdealChannel\""
par testnet.host[1].eth[0].phys$i.channel typename "\"ned.IdealChannel\""
par testnet.host[1].eth[0].tap typename "\"inet.emulation.linklayer.ethernet.ExtEthernetTapDevice\""
par testnet.host[1].eth[0].tap device "\"tap1\""
par testnet.host[1].eth[0].tap namespace "\"\""
par testnet.host[1].eth[0].tap packetNameFormat "\"Ext-%p-%t-%n\""
scalar testnet.host[1].eth[0].tap packetReceived:count 56
attr interpolationmode none
attr recordingmode count
attr source packetReceived
attr title "packets received, count"
scalar testnet.host[1].eth[0].tap packetReceived:sum(packetBytes) 6322
attr interpolationmode none
attr recordingmode sum(packetBytes)
attr source packetReceived
attr title "packets received, sum(packetBytes)"
scalar testnet.host[1].eth[0].tap packetSent:count 5
attr interpolationmode none
attr recordingmode count
attr source packetSent
attr title "packets sent, count"
scalar testnet.host[1].eth[0].tap packetSent:sum(packetBytes) 300
attr interpolationmode none
attr recordingmode sum(packetBytes)
attr source packetSent
attr title "packets sent, sum(packetBytes)"
scalar testnet.host[1].eth[0].tap packetReceivedFromLower:count 5
attr interpolationmode none
attr recordingmode count
attr source packetReceivedFromLower
attr title "packets received from higher layer, count"
scalar testnet.host[1].eth[0].tap packetReceivedFromLower:sum(packetBytes) 320
attr interpolationmode none
attr recordingmode sum(packetBytes)
attr source packetReceivedFromLower
attr title "packets received from higher layer, sum(packetBytes)"
scalar testnet.host[1].eth[0].tap packetSentFromLower:count 56
attr interpolationmode none
attr recordingmode count
attr source packetSentToLower
attr title "packets sent to higher layer, count"
scalar testnet.host[1].eth[0].tap packetSentFromLower:sum(packetBytes) 6322
attr interpolationmode none
attr recordingmode sum(packetBytes)
attr source packetSentToLower
attr title "packets sent to higher layer, sum(packetBytes)"
par testnet.host[1].eth[0].queue typename "\"inet.linklayer.ethernet.common.EthernetQueue\""
par testnet.host[1].eth[0].queue displayStringTextFormat "\"contains %p pk (%l) pushed %u\\npulled %o removed %r dropped %d\""
par testnet.host[1].eth[0].queue packetCapacity 10000
par testnet.host[1].eth[0].queue dataCapacity -1b
attr unit b
par testnet.host[1].eth[0].queue dropperClass "\"inet::queueing::PacketAtCollectionEndDropper\""
par testnet.host[1].eth[0].queue comparatorClass "\"inet::EthernetFrameTypeComparator\""
par testnet.host[1].eth[0].queue bufferModule "\"\""
scalar testnet.host[1].eth[0].queue queueLength:last 0
attr autoWarmupFilter false
attr interpolationmode sample-hold
attr recordingmode last
attr source "warmup(atomic(constant0(packetPushEnded) + count(packetPushStarted) - count(packetPulled) - count(packetRemoved) - count(packetDropped)))"
attr title "queue length, last"
attr unit pk
scalar testnet.host[1].eth[0].queue queueLength:max 0
attr autoWarmupFilter false
attr interpolationmode sample-hold
attr recordingmode max
attr source "warmup(atomic(constant0(packetPushEnded) + count(packetPushStarted) - count(packetPulled) - count(packetRemoved) - count(packetDropped)))"
attr title "queue length, max"
attr unit pk
scalar testnet.host[1].eth[0].queue queueLength:timeavg 0
attr autoWarmupFilter false
attr interpolationmode sample-hold
attr recordingmode timeavg
attr source "warmup(atomic(constant0(packetPushEnded) + count(packetPushStarted) - count(packetPulled) - count(packetRemoved) - count(packetDropped)))"
attr title "queue length, timeavg"
attr unit pk
scalar testnet.host[1].eth[0].queue queueBitLength:last 0
attr autoWarmupFilter false
attr interpolationmode sample-hold
attr recordingmode last
attr source "warmup(atomic(constant0(packetPushEnded) + sum(packetLength(packetPushStarted)) - sum(packetLength(packetPulled)) - sum(packetLength(packetRemoved)) - sum(packetLength(packetDropped))))"
attr title "queue bit length, last"
attr unit b
scalar testnet.host[1].eth[0].queue queueBitLength:max 0
attr autoWarmupFilter false
attr interpolationmode sample-hold
attr recordingmode max
attr source "warmup(atomic(constant0(packetPushEnded) + sum(packetLength(packetPushStarted)) - sum(packetLength(packetPulled)) - sum(packetLength(packetRemoved)) - sum(packetLength(packetDropped))))"
attr title "queue bit length, max"
attr unit b
scalar testnet.host[1].eth[0].queue queueBitLength:timeavg 0
attr autoWarmupFilter false
attr interpolationmode sample-hold
attr recordingmode timeavg
attr source "warmup(atomic(constant0(packetPushEnded) + sum(packetLength(packetPushStarted)) - sum(packetLength(packetPulled)) - sum(packetLength(packetRemoved)) - sum(packetLength(packetDropped))))"
attr title "queue bit length, timeavg"
attr unit b
statistic testnet.host[1].eth[0].queue queueingTime:histogram
field count 56
field mean 0
field stddev 0
field min 0
field max 0
field sum 0
field sqrsum 0
attr interpolationmode none
attr recordingmode histogram
attr source queueingTime(packetPulled)
attr title "queueing times"
attr unit s
bin	-inf	0
bin	-0.5	0
bin	-0.48	0
bin	-0.46	0
bin	-0.44	0
bin	-0.42	0
bin	-0.4	0
bin	-0.38	0
bin	-0.36	0
bin	-0.34	0
bin	-0.32	0
bin	-0.3	0
bin	-0.28	0
bin	-0.26	0
bin	-0.24	0
bin	-0.22	0
bin	-0.2	0
bin	-0.18	0
bin	-0.16	0
bin	-0.14	0
bin	-0.12	0
bin	-0.1	0
bin	-0.08	0
bin	-0.06	0
bin	-0.04	0
bin	-0.02	0
bin	0	56
bin	0.02	0
bin	0.04	0
bin	0.06	0
bin	0.08	0
bin	0.1	0
bin	0.12	0
bin	0.14	0
bin	0.16	0
bin	0.18	0
bin	0.2	0
bin	0.22	0
bin	0.24	0
bin	0.26	0
bin	0.28	0
bin	0.3	0
bin	0.32	0
bin	0.34	0
bin	0.36	0
bin	0.38	0
bin	0.4	0
bin	0.42	0
bin	0.44	0
bin	0.46	0
bin	0.48	0
bin	0.5	0
scalar testnet.host[1].eth[0].queue outgoingPackets:count 56
attr recordingmode count
attr source packetPulled
attr title "outgoing packets, count"
attr unit pk
scalar testnet.host[1].eth[0].queue outgoingPacketLengths:sum 50576
attr interpolationmode none
attr recordingmode sum
attr source packetLength(packetPulled)
attr title "outgoing packet lengths, sum"
attr unit b
statistic testnet.host[1].eth[0].queue outgoingPacketLengths:histogram
field count 56
field mean 903.14285714286
field stddev 416.65871923157
field min 368
field max 1760
field sum 50576
field sqrsum 55225600
attr interpolationmode none
attr recordingmode histogram
attr source packetLength(packetPulled)
attr title "outgoing packet lengths"
attr unit b
bin	-inf	0
bin	20	0
bin	40	0
bin	60	0
bin	80	0
bin	100	0
bin	120	0
bin	140	0
bin	160	0
bin	180	0
bin	200	0
bin	220	0
bin	240	0
bin	260	0
bin	280	0
bin	300	0
bin	320	0
bin	340	0
bin	360	6
bin	380	0
bin	400	0
bin	420	0
bin	440	0
bin	460	0
bin	480	0
bin	500	0
bin	520	0
bin	540	0
bin	560	0
bin	580	9
bin	600	0
bin	620	0
bin	640	0
bin	660	0
bin	680	0
bin	700	0
bin	720	11
bin	740	5
bin	760	0
bin	780	0
bin	800	0
bin	820	0
bin	840	0
bin	860	0
bin	880	11
bin	900	1
bin	920	0
bin	940	0
bin	960	0
bin	980	0
bin	1000	0
bin	1020	1
bin	1040	0
bin	1060	0
bin	1080	0
bin	1100	0
bin	1120	0
bin	1140	0
bin	1160	0
bin	1180	0
bin	1200	0
bin	1220	0
bin	1240	0
bin	1260	0
bin	1280	0
bin	1300	0
bin	1320	0
bin	1340	0
bin	1360	0
bin	1380	0
bin	1400	0
bin	1420	0
bin	1440	0
bin	1460	0
bin	1480	0
bin	1500	3
bin	1520	0
bin	1540	0
bin	1560	0
bin	1580	0
bin	1600	3
bin	1620	0
bin	1640	0
bin	1660	3
bin	1680	0
bin	1700	0
bin	1720	0
bin	1740	0
bin	1760	3
bin	1780	0
bin	1800	0
bin	1820	0
bin	1840	0
[...]
scalar testnet.host[8].eth[0].mac "bits/sec sent" 35.383258524819
scalar testnet.host[8].eth[0].mac "bits/sec rcvd" 1.760908666865
scalar testnet.host[8].eth[0].mac "rx channel idle (%)" 99.999998018978
scalar testnet.host[8].eth[0].mac "rx channel utilization (%)" 1.9810222502232e-06
scalar testnet.host[8].eth[0].mac rxPausePkUnits:count 0
attr interpolationmode none
attr recordingmode count
attr title "pause units received, count"
scalar testnet.host[8].eth[0].mac rxPausePkUnits:sum 0
attr interpolationmode none
attr recordingmode sum
attr title "pause units received, sum"
scalar testnet.host[8].eth[0].mac txPausePkUnits:count 0
attr interpolationmode none
attr recordingmode count
attr title "pause units sent, count"
scalar testnet.host[8].eth[0].mac txPausePkUnits:sum 0
attr interpolationmode none
attr recordingmode sum
attr title "pause units sent, sum"
scalar testnet.host[8].eth[0].mac rxPkOk:count 5
attr interpolationmode none
attr recordingmode count
attr source rxPkOk
attr title "packets received OK, count"
scalar testnet.host[8].eth[0].mac rxPkOk:sum(packetBytes) 320
attr interpolationmode none
attr recordingmode sum(packetBytes)
attr source rxPkOk
attr title "packets received OK, sum(packetBytes)"
scalar testnet.host[8].eth[0].mac txPk:count 56
attr interpolationmode none
attr recordingmode count
attr source packetSentToLower
attr title "packets transmitted, count"
scalar testnet.host[8].eth[0].mac txPk:sum(packetBytes) 6430
attr interpolationmode none
attr recordingmode sum(packetBytes)
attr source packetSentToLower
attr title "packets transmitted, sum(packetBytes)"
scalar testnet.host[8].eth[0].mac packetReceivedFromUpper:count 56
attr interpolationmode none
attr recordingmode count
attr source packetReceivedFromUpper
attr title "packet bytes from higher layer, count"
scalar testnet.host[8].eth[0].mac packetReceivedFromUpper:sum(packetBytes) 6322
attr interpolationmode none
attr recordingmode sum(packetBytes)
attr source packetReceivedFromUpper
attr title "packet bytes from higher layer, sum(packetBytes)"
scalar testnet.host[8].eth[0].mac passedUpPk:count 5
attr interpolationmode none
attr recordingmode count
attr source packetSentToUpper
attr title "packets passed to higher layer, count"
scalar testnet.host[8].eth[0].mac passedUpPk:sum(packetBytes) 320
attr interpolationmode none
attr recordingmode sum(packetBytes)
attr source packetSentToUpper
attr title "packets passed to higher layer, sum(packetBytes)"
scalar testnet.host[8].eth[0].mac packetDropIncorrectlyReceived:count 0
attr interpolationmode none
attr recordingmode count
attr source packetDropReasonIsIncorrectlyReceived(packetDropped)
attr title "packet drop: incorrectly received, count"
scalar testnet.host[8].eth[0].mac packetDropIncorrectlyReceived:sum(packetBytes) 0
attr interpolationmode none
attr recordingmode sum(packetBytes)
attr source packetDropReasonIsIncorrectlyReceived(packetDropped)
attr title "packet drop: incorrectly received, sum(packetBytes)"
scalar testnet.host[8].eth[0].mac packetDropInterfaceDown:count 0
attr interpolationmode none
attr recordingmode count
attr source packetDropReasonIsInterfaceDown(packetDropped)
attr title "packet drop: interface down, count"
scalar testnet.host[8].eth[0].mac packetDropInterfaceDown:sum(packetBytes) 0
attr interpolationmode none
attr recordingmode sum(packetBytes)
attr source packetDropReasonIsInterfaceDown(packetDropped)
attr title "packet drop: interface down, sum(packetBytes)"
scalar testnet.host[8].eth[0].mac packetDropNotAddressedToUs:count 0
attr interpolationmode none
attr recordingmode count
attr source packetDropReasonIsNotAddressedToUs(packetDropped)
attr title "packet drop: not addressed to us, count"
scalar testnet.host[8].eth[0].mac packetDropNotAddressedToUs:sum(packetBytes) 0
attr interpolationmode none
attr recordingmode sum(packetBytes)
attr source packetDropReasonIsNotAddressedToUs(packetDropped)
attr title "packet drop: not addressed to us, sum(packetBytes)"
par testnet.host[8].eth[0] typename "\"inet.emulation.linklayer.ethernet.ExtUpperEthernetInterface\""
par testnet.host[8].eth[0] displayStringTextFormat "\"%a (%i)\\n%m\""
par testnet.host[8].eth[0] recordPcap false
par testnet.host[8].eth[0] numPcapRecorders 0
par testnet.host[8].eth[0] isWireless false
par testnet.host[8].eth[0] interfaceTableModule "\"testnet.host[8].interfaceTable\""
par testnet.host[8].eth[0] device "\"tap8\""
par testnet.host[8].eth[0] namespace "\"\""
par testnet.host[8].eth[0] copyConfiguration "\"copyFromExt\""
attr enum ,copyToExt,copyFromExt
par testnet.host[8].eth[0] address "\"0A-AA-00-00-00-09\""
attr mutable ""
par testnet.host[8].eth[0] broadcast true
par testnet.host[8].eth[0] multicast true
par testnet.host[8].eth[0] pointToPoint false
par testnet.host[8].eth[0] mtu 4470B
attr unit B
par testnet.host[8].eth[0] csmacdSupport false
par testnet.host[8].eth[0] bitrate 1e+08bps
attr unit bps
scalar testnet.host[8].eth[0] packetDropInterfaceDown:count 0
attr interpolationmode none
attr recordingmode count
attr source packetDropReasonIsInterfaceDown(packetDropped)
attr title "packet drops: interface down, count"
scalar testnet.host[8].eth[0] packetDropInterfaceDown:sum(packetBytes) 0
attr interpolationmode none
attr recordingmode sum(packetBytes)
attr source packetDropReasonIsInterfaceDown(packetDropped)
attr title "packet drops: interface down, sum(packetBytes)"
scalar testnet.host[8].eth[0] packetDropNoCarrier:count 0
attr interpolationmode none
attr recordingmode count
attr source packetDropReasonIsNoCarrier(packetDropped)
attr title "packet drops: no carrier, count"
scalar testnet.host[8].eth[0] packetDropNoCarrier:sum(packetBytes) 0
attr interpolationmode none
attr recordingmode sum(packetBytes)
attr source packetDropReasonIsNoCarrier(packetDropped)
attr title "packet drops: no carrier, sum(packetBytes)"
par testnet.host[8].ipv4.transportIn.channel typename "\"ned.IdealChannel\""
par testnet.host[8].ipv4.up.out[0].channel typename "\"ned.IdealChannel\""
par testnet.host[8].ipv4.lp.out[2].channel typename "\"ned.IdealChannel\""
par testnet.host[8].ipv4.ifIn.channel typename "\"ned.IdealChannel\""
par testnet.host[8].ipv4.configurator typename "\"inet.networklayer.configurator.ipv4.Ipv4NodeConfigurator\""
par testnet.host[8].ipv4.configurator interfaceTableModule "\"testnet.host[8].interfaceTable\""
par testnet.host[8].ipv4.configurator routingTableModule "\"testnet.host[8].ipv4.routingTable\""
par testnet.host[8].ipv4.configurator networkConfiguratorModule "\"configurator\""
par testnet.host[8].ipv4.configurator configureRoutingTable true
par testnet.host[8].ipv4.routingTable typename "\"inet.networklayer.ipv4.Ipv4RoutingTable\""
par testnet.host[8].ipv4.routingTable interfaceTableModule "\"testnet.host[8].interfaceTable\""
par testnet.host[8].ipv4.routingTable routerId "\"auto\""
par testnet.host[8].ipv4.routingTable netmaskRoutes "\"*\""
par testnet.host[8].ipv4.routingTable forwarding true
par testnet.host[8].ipv4.routingTable multicastForwarding false
par testnet.host[8].ipv4.routingTable useAdminDist false
par testnet.host[8].ipv4.routingTable routingFile "\"\""
par testnet.host[8].ipv4.natTable typename "\"inet.networklayer.ipv4.Ipv4NatTable\""
par testnet.host[8].ipv4.natTable networkProtocolModule "\"^.ip\""
par testnet.host[8].ipv4.natTable config "<config/> at content:1"
par testnet.host[8].ipv4.up typename "\"inet.common.MessageDispatcher\""
par testnet.host[8].ipv4.up displayStringTextFormat "\"processed %p pk (%l)\""
par testnet.host[8].ipv4.up forwardServiceRegistration true
par testnet.host[8].ipv4.up forwardProtocolRegistration true
par testnet.host[8].ipv4.igmp typename "\"inet.networklayer.ipv4.Igmpv2\""
par testnet.host[8].ipv4.igmp interfaceTableModule "\"testnet.host[8].interfaceTable\""
par testnet.host[8].ipv4.igmp routingTableModule "\"testnet.host[8].ipv4.routingTable\""
par testnet.host[8].ipv4.igmp crcMode "\"computed\""
attr enum declared,computed
par testnet.host[8].ipv4.igmp enabled true
par testnet.host[8].ipv4.igmp robustnessVariable 2
par testnet.host[8].ipv4.igmp queryInterval 125s
attr unit s
par testnet.host[8].ipv4.igmp queryResponseInterval 10s
attr unit s
par testnet.host[8].ipv4.igmp groupMembershipInterval 260s
attr unit s
par testnet.host[8].ipv4.igmp otherQuerierPresentInterval 255s
attr unit s
par testnet.host[8].ipv4.igmp startupQueryInterval 31.25s
attr unit s
par testnet.host[8].ipv4.igmp startupQueryCount 2
par testnet.host[8].ipv4.igmp lastMemberQueryInterval 1s
attr unit s
par testnet.host[8].ipv4.igmp lastMemberQueryCount 2
par testnet.host[8].ipv4.igmp unsolicitedReportInterval 10s
attr unit s
par testnet.host[8].ipv4.icmp typename "\"inet.networklayer.ipv4.Icmp\""
par testnet.host[8].ipv4.icmp interfaceTableModule "\"testnet.host[8].interfaceTable\""
par testnet.host[8].ipv4.icmp routingTableModule "\"testnet.host[8].ipv4.routingTable\""
par testnet.host[8].ipv4.icmp crcMode "\"computed\""
attr enum declared,computed
attr mutable ""
par testnet.host[8].ipv4.icmp quoteLength 8B
attr mutable ""
attr unit B
par testnet.host[8].ipv4.mp typename "\"inet.common.MessageDispatcher\""
par testnet.host[8].ipv4.mp displayStringTextFormat "\"processed %p pk (%l)\""
par testnet.host[8].ipv4.mp forwardServiceRegistration true
par testnet.host[8].ipv4.mp forwardProtocolRegistration true
par testnet.host[8].ipv4.ip typename "\"inet.networklayer.ipv4.Ipv4\""
par testnet.host[8].ipv4.ip interfaceTableModule "\"testnet.host[8].interfaceTable\""
par testnet.host[8].ipv4.ip routingTableModule "\"testnet.host[8].ipv4.routingTable\""
par testnet.host[8].ipv4.ip arpModule "\"testnet.host[8].ipv4.arp\""
par testnet.host[8].ipv4.ip icmpModule "\"testnet.host[8].ipv4.icmp\""
par testnet.host[8].ipv4.ip crcMode "\"computed\""
attr enum declared,computed
par testnet.host[8].ipv4.ip timeToLive 32
par testnet.host[8].ipv4.ip multicastTimeToLive 32
par testnet.host[8].ipv4.ip fragmentTimeout 60s
attr unit s
par testnet.host[8].ipv4.ip limitedBroadcast false
par testnet.host[8].ipv4.ip directBroadcastInterfaces "\"\""
scalar testnet.host[8].ipv4.ip packetDropAddressResolutionFailed:count 0
attr interpolationmode none
attr recordingmode count
attr source packetDropReasonIsAddressResolutionFailed(packetDropped)
attr title "packet drop: address resolution failed, count"
scalar testnet.host[8].ipv4.ip packetDropAddressResolutionFailed:sum(packetBytes) 0
attr interpolationmode none
attr recordingmode sum(packetBytes)
attr source packetDropReasonIsAddressResolutionFailed(packetDropped)
attr title "packet drop: address resolution failed, sum(packetBytes)"
scalar testnet.host[8].ipv4.ip packetDropHopLimitReached:count 0
attr interpolationmode none
attr recordingmode count
attr source packetDropReasonIsHopLimitReached(packetDropped)
attr title "packet drop: hop limit reached, count"
scalar testnet.host[8].ipv4.ip packetDropHopLimitReached:sum(packetBytes) 0
attr interpolationmode none
attr recordingmode sum(packetBytes)
attr source packetDropReasonIsHopLimitReached(packetDropped)
attr title "packet drop: hop limit reached, sum(packetBytes)"
scalar testnet.host[8].ipv4.ip packetDropForwardingDisabled:count 0
attr interpolationmode none
attr recordingmode count
attr source packetDropReasonIsForwardingDisabled(packetDropped)
attr title "packet drop: forwarding disabled, count"
scalar testnet.host[8].ipv4.ip packetDropForwardingDisabled:sum(packetBytes) 0
attr interpolationmode none
attr recordingmode sum(packetBytes)
attr source packetDropReasonIsForwardingDisabled(packetDropped)
attr title "packet drop: forwarding disabled, sum(packetBytes)"
scalar testnet.host[8].ipv4.ip packetDropNoInterfaceFound:count 0
attr interpolationmode none
attr recordingmode count
attr source packetDropReasonIsNoInterfaceFound(packetDropped)
attr title "packet drop: no interface found, count"
scalar testnet.host[8].ipv4.ip packetDropNoInterfaceFound:sum(packetBytes) 0
attr interpolationmode none
attr recordingmode sum(packetBytes)
attr source packetDropReasonIsNoInterfaceFound(packetDropped)
attr title "packet drop: no interface found, sum(packetBytes)"
scalar testnet.host[8].ipv4.ip packetDropNoRouteFound:count 0
attr interpolationmode none
attr recordingmode count
attr source packetDropReasonIsNoRouteFound(packetDropped)
attr title "packet drop: no route found, count"
scalar testnet.host[8].ipv4.ip packetDropNoRouteFound:sum(packetBytes) 0
attr interpolationmode none
attr recordingmode sum(packetBytes)
attr source packetDropReasonIsNoRouteFound(packetDropped)
attr title "packet drop: no route found, sum(packetBytes)"
scalar testnet.host[8].ipv4.ip packetDropUndefined:count 0
attr interpolationmode none
attr recordingmode count
attr source packetDropReasonIsUndefined(packetDropped)
attr title "packet drop: undefined, count"
scalar testnet.host[8].ipv4.ip packetDropUndefined:sum(packetBytes) 0
attr interpolationmode none
attr recordingmode sum(packetBytes)
attr source packetDropReasonIsUndefined(packetDropped)
attr title "packet drop: undefined, sum(packetBytes)"
par testnet.host[8].ipv4.arp typename "\"inet.networklayer.arp.ipv4.Arp\""
par testnet.host[8].ipv4.arp interfaceTableModule "\"testnet.host[8].interfaceTable\""
par testnet.host[8].ipv4.arp routingTableModule "\"testnet.host[8].ipv4.routingTable\""
par testnet.host[8].ipv4.arp retryTimeout 1s
attr unit s
par testnet.host[8].ipv4.arp retryCount 3
par testnet.host[8].ipv4.arp cacheTimeout 120s
attr unit s
par testnet.host[8].ipv4.arp proxyArpInterfaces "\"\""
scalar testnet.host[8].ipv4.arp arpResolutionFailed:count 0
attr recordingmode count
attr title "ARP failed resolutions, count"
scalar testnet.host[8].ipv4.arp arpResolutionCompleted:count 0
attr recordingmode count
attr title "ARP completed resolutions, count"
scalar testnet.host[8].ipv4.arp arpResolutionInitiated:count 0
attr recordingmode count
attr title "ARP initiated resolutions, count"
scalar testnet.host[8].ipv4.arp arpReplySent:count 0
attr recordingmode count
attr source arpReplySent
attr title "ARP replies sent, count"
scalar testnet.host[8].ipv4.arp arpReplySent:sum(packetBytes) 0
attr recordingmode sum(packetBytes)
attr source arpReplySent
attr title "ARP replies sent, sum(packetBytes)"
scalar testnet.host[8].ipv4.arp arpRequestSent:count 0
attr recordingmode count
attr source arpRequestSent
attr title "ARP request sent, count"
scalar testnet.host[8].ipv4.arp arpRequestSent:sum(packetBytes) 0
attr recordingmode sum(packetBytes)
attr source arpRequestSent
attr title "ARP request sent, sum(packetBytes)"
par testnet.host[8].ipv4.lp typename "\"inet.common.MessageDispatcher\""
par testnet.host[8].ipv4.lp displayStringTextFormat "\"processed %p pk (%l)\""
par testnet.host[8].ipv4.lp forwardServiceRegistration true
par testnet.host[8].ipv4.lp forwardProtocolRegistration true
par testnet.host[8].ipv4 typename "\"inet.networklayer.ipv4.Ipv4NetworkLayer\""
par testnet.host[8].ipv4 forwarding true
par testnet.host[8].ipv4 multicastForwarding false
par testnet.host[8].ipv4 interfaceTableModule "\"testnet.host[8].interfaceTable\""
par testnet.host[8].ipv4 displayStringTextFormat "\"%i\""
par testnet.host[8].nl typename "\"inet.common.MessageDispatcher\""
par testnet.host[8].nl displayStringTextFormat "\"processed %p pk (%l)\""
par testnet.host[8].nl forwardServiceRegistration true
par testnet.host[8].nl forwardProtocolRegistration true
par testnet.host[8].udp.crcInsertion typename "\"inet.transportlayer.udp.UdpCrcInsertionHook\""
par testnet.host[8].udp typename "\"inet.transportlayer.udp.Udp\""
par testnet.host[8].udp interfaceTableModule "\"testnet.host[8].interfaceTable\""
par testnet.host[8].udp icmpModule "\"^.ipv4.icmp\""
par testnet.host[8].udp icmpv6Module "\"^.ipv6.icmpv6\""
par testnet.host[8].udp crcMode "\"computed\""
attr enum disabled,declared,computed
par testnet.host[8].udp defaultMulticastLoop true
scalar testnet.host[8].udp packetReceived:count 0
attr interpolationmode none
attr recordingmode count
attr source packetReceived
attr title "packets received, count"
scalar testnet.host[8].udp packetReceived:sum(packetBytes) 0
attr interpolationmode none
attr recordingmode sum(packetBytes)
attr source packetReceived
attr title "packets received, sum(packetBytes)"
scalar testnet.host[8].udp packetSent:count 0
attr interpolationmode none
attr recordingmode count
attr source packetSent
attr title "packets sent, count"
scalar testnet.host[8].udp packetSent:sum(packetBytes) 0
attr interpolationmode none
attr recordingmode sum(packetBytes)
attr source packetSent
attr title "packets sent, sum(packetBytes)"
scalar testnet.host[8].udp passedUpPk:count 0
attr interpolationmode none
attr recordingmode count
attr source packetSentToUpper
attr title "packets passed up, count"
scalar testnet.host[8].udp droppedPkWrongPort:count 0
attr interpolationmode none
attr recordingmode count
attr source packetDropReasonIsNoPortFound(packetDropped)
attr title "packets dropped (wrong port), count"
scalar testnet.host[8].udp droppedPkBadChecksum:count 0
attr interpolationmode none
attr recordingmode count
attr source packetDropReasonIsIncorrectlyReceived(packetDropped)
attr title "packets dropped (checksum error), count"
par testnet.host[8].tcp.crcInsertion typename "\"inet.transportlayer.tcp_common.TcpCrcInsertionHook\""
par testnet.host[8].tcp typename "\"inet.transportlayer.tcp.Tcp\""
par testnet.host[8].tcp crcMode "\"computed\""
attr enum declared,computed
par testnet.host[8].tcp advertisedWindow 7504
par testnet.host[8].tcp delayedAcksEnabled false
par testnet.host[8].tcp nagleEnabled true
par testnet.host[8].tcp limitedTransmitEnabled false
par testnet.host[8].tcp increasedIWEnabled false
par testnet.host[8].tcp sackSupport false
par testnet.host[8].tcp windowScalingSupport false
par testnet.host[8].tcp windowScalingFactor -1
par testnet.host[8].tcp timestampSupport false
par testnet.host[8].tcp mss 536
par testnet.host[8].tcp msl 120s
attr unit s
par testnet.host[8].tcp tcpAlgorithmClass "\"TcpReno\""
attr enum TcpVegas,TcpWestwood,TcpNewReno,TcpReno,TcpTahoe,TcpNoCongestionControl
par testnet.host[8].tcp useDataNotification false
par testnet.host[8].tcp dupthresh 3
par testnet.host[8].tcp initialSsthresh 4294967295
par testnet.host[8].tcp stopOperationExtraTime 0s
attr unit s
par testnet.host[8].tcp stopOperationTimeout 2s
attr unit s
par testnet.host[8].tcp ecnWillingness false
par testnet.host[8].tcp dctcpGamma 0.0625
par testnet.host[8].tn typename "\"inet.common.MessageDispatcher\""
par testnet.host[8].tn displayStringTextFormat "\"processed %p pk (%l)\""
par testnet.host[8].tn forwardServiceRegistration true
par testnet.host[8].tn forwardProtocolRegistration true
par testnet.host[8].at typename "\"inet.common.MessageDispatcher\""
par testnet.host[8].at displayStringTextFormat "\"processed %p pk (%l)\""
par testnet.host[8].at forwardServiceRegistration true
par testnet.host[8].at forwardProtocolRegistration true
par testnet.host[8] typename "\"inet.node.inet.StandardHost\""
par testnet.host[8] hasStatus false
par testnet.host[8] osgModel "\"\""
par testnet.host[8] osgModelColor "\"\""
par testnet.host[8] canvasImage "\"\""
par testnet.host[8] canvasImageColor "\"\""
par testnet.host[8] recordPcap false
par testnet.host[8] numPcapRecorders 0
par testnet.host[8] numLoInterfaces 1
par testnet.host[8] numWlanInterfaces 0
par testnet.host[8] numEthInterfaces 0
par testnet.host[8] numPppInterfaces 0
par testnet.host[8] numTunInterfaces 0
par testnet.host[8] numVirtInterfaces 0
par testnet.host[8] fcsMode "\"computed\""
attr enum declared,computed
par testnet.host[8] hasIpv4 true
par testnet.host[8] hasIpv6 false
par testnet.host[8] hasGn false
par testnet.host[8] forwarding true
par testnet.host[8] multicastForwarding false
par testnet.host[8] hasUdp true
par testnet.host[8] hasTcp true
par testnet.host[8] hasSctp false
par testnet.host[8] numApps 0
par testnet typename "\"test2.simulations.testnet\""
par testnet height 3
attr prompt "Height of tree"

